# total energy = -630.51760891 eV

CRYSTAL
PRIMVEC
        0.00285542     0.02004370    -7.95977623
       -7.82940539     0.00763210    -3.98158109
       -3.91729101     8.74642787     0.01461334
PRIMCOORD
56 1
Li     -3.98378827     2.40790229    -1.86090840    -0.07631123    -0.37707340    -0.33977487
Li     -3.99848330     2.51099708    -5.79904915     0.13534039    -0.73621933    -0.66074243
Li     -7.84353436     2.31839594    -9.89391636     0.02647942     0.06262422    -0.06079050
Li     -7.73606024     1.94300956    -5.85003115    -0.01058335     0.23053596    -0.36365342
Li     -3.91411384     6.57173402    -1.93376057    -0.16005542    -0.29658443     0.03443170
Li     -4.05008444     6.30985948    -5.71637379     0.40169074     0.46057132    -0.70037074
Li     -7.81410777     6.41365694    -9.97596569    -0.52846617    -0.08400251    -0.03758909
Li     -7.86698108     6.44083125    -5.88690227     0.30882257     0.13368084     0.12239138
Ti     -1.98826021     2.38328720    -4.00068731     0.09809114     0.19966148     0.23462954
Ti     -5.96123483     6.88730032    -7.92744528     0.97592543     0.14405191     0.18353030
Ti     -7.61253393     4.34485025    -7.57432881    -0.95148916    -1.31883146    -1.87303964
Ti     -7.75637899     4.31144832    -3.73473780     0.32546329     0.38248062     0.29518504
Ti     -3.81005251     4.38507175    -7.62182517     0.71557951    -0.63802867    -0.10392624
Ti     -4.05675606     4.45804455    -3.77832483    -0.66183103    -0.41162398     0.90202567
Ti     -2.13634941     0.04846057    -2.10051538    -2.43997776     0.23766876    -0.50588076
Ni     -5.81083047     2.34958686    -7.95693340    -0.22407311    -0.87643303    -0.13862758
Ni     -5.85815325     1.98019492    -4.00397247    -0.36968708     0.23609340     0.16859504
Ni     -9.78026272     6.53460665    -7.94970899    -0.20481938    -0.42930617     0.84048288
Ni     -9.78356652     6.35767135    -4.05981349    -0.66582672     0.25986715    -0.02339060
Ni     -1.95233332     2.17312313    -7.92715665     0.16167119     0.22667597    -0.05551073
Ni     -5.89817677     6.74854519    -3.99619338    -0.58086283     1.17063346     0.04583415
Ni     -2.07411061     0.12363679    -6.03446806     0.56464378    -0.02389066     0.81524351
Mo     -9.99268240     8.70961098   -10.20924327     0.12054506     1.83005198     1.35226073
Mo     -9.72434713     8.61298818    -6.42194059     0.59674489     1.85294866    -0.12448338
O      -1.90708081     1.95297598    -2.02787001     0.00334411     0.28839337    -0.38889333
O      -2.01362119     2.00561286    -5.98071047     0.22881837    -1.09588543     0.18745283
O      -5.99766118     6.84445115    -2.08431760     1.11902238    -0.20807997     1.87705809
O      -5.87626186     6.99554675    -5.94806900    -0.55332277    -0.33213706    -1.07930959
O      -6.00266351     1.97450980   -10.05270957     0.87027992    -0.33475884    -0.76349221
O      -5.75971888     1.85276056    -5.87397672    -0.33747242     0.42136107     0.19221256
O      -9.88349107     6.92575905    -9.72881599     0.68449567    -0.74453917    -0.05391993
O      -9.72726725     6.76047359    -6.10072800    -0.30922063    -0.88430888     0.72805222
O      -3.95832628     2.29630901    -3.94332590     1.15319715     1.22106861     0.39371279
O      -3.93537447     2.48725105    -7.90263604     0.84652335    -0.36870041    -0.13302222
O      -7.78103171     2.37592666    -4.04942224    -0.30584724     0.20390295     0.79603735
O      -7.69491593     2.38148756    -7.85488067    -1.42847493     0.60115838    -0.29496873
O      -3.84972979     6.37311935    -3.85119971     1.11054669     0.70547743    -0.50667131
O      -3.94088121     6.22408642    -7.86227838    -1.17581932     2.14539598    -0.65210409
O      -7.99276818     6.32440047    -4.04206828     0.65416251    -0.17296019     0.85349939
O      -7.80719262     6.25291603    -7.97770018     0.73677405     1.32009575     0.32594268
O      -4.00456822     4.41825715    -2.01361869     0.59603197    -0.45335432    -0.23458425
O      -3.62718115     4.39137414    -5.83792530    -1.06454904     0.04267788     0.19322909
O      -7.85047268     4.39901410    -9.90750636     0.33699254    -0.25695115    -0.92075965
O      -7.91219042     4.45901890    -5.89406198     0.11686526     0.00951055     0.86439374
O      -3.99120722     0.13640894    -9.80540814     0.27934705    -0.31839348    -0.91264850
O      -4.02042642     0.01958528    -6.02929995     0.04429260    -0.61289992    -0.59204781
O      -7.53287323     0.03637759    -5.87886756    -0.51057582    -0.84506468    -0.55449934
O      -3.94295086     8.73559551    -5.96642829     0.08563313     0.52337102    -0.70305579
O      -9.67098693     4.20531191    -8.04394836    -0.65946939    -0.96143801     0.80220022
O      -9.74617233     4.44101007    -3.97717069     0.01402100     0.10567764    -0.42934763
O      -5.89546246     4.96966223    -4.06061570     0.01550872    -1.49198085    -0.19159713
O      -5.75444966     4.24067845    -7.85789174    -0.37745724     0.42271551     0.20209971
O      -5.94079805     8.60899713    -3.91896511     0.31300815     1.23155835    -0.49751527
O      -5.84485011     8.72203253    -8.09902994     0.20533518    -1.22609353     0.99466487
O      -9.68960133     8.41891792    -3.95673204    -0.18755206    -0.52371350    -1.06831824
O      -5.88563976     0.52090017    -8.18346974     0.00692827    -0.28959936     1.62445216
