# total energy = -631.12377293 eV

CRYSTAL
PRIMVEC
        0.00279571     0.02951795    -7.98606283
       -7.83802570     0.01298533    -3.99532603
       -3.92160916     8.71933433     0.00634407
PRIMCOORD
56 1
Li     -4.00521316     2.24233478    -2.00160279     0.11117379    -0.04693965     0.11995255
Li     -3.82081341     2.18950791    -6.05345321    -0.54319747     0.20067822     0.18504466
Li     -7.90755166     2.36083722   -10.08143577     0.40496853     0.11966300     0.64112773
Li     -7.78320466     2.27517932    -6.04195955     0.10756615    -0.10218182     0.65854344
Li     -3.93040045     6.46736251    -1.90621092     0.14143278     0.20260607    -0.07044578
Li     -4.06862316     6.61620301    -5.90837882     0.46360376    -0.55145401     0.30784022
Li     -7.90481851     6.49657631    -9.92481720     0.23057658    -0.46882016    -0.37877658
Li     -7.96068310     6.67642079    -5.98466435     0.94573780    -0.45373667     0.45486980
Ti     -1.97839123     2.17967046    -3.96254969     0.60582747    -0.77206585    -0.07903162
Ti     -5.84487270     6.59403909    -7.91528660     0.00385445     0.46441223    -0.36945791
Ti     -7.86889584     4.43018928    -7.76099681     0.91343384    -0.57456030     0.65365802
Ti     -7.69510500     4.32364445    -3.76098969    -0.80648742     0.67698911     0.74390265
Ti     -3.72923733     4.35840232    -7.77045373    -0.99803084     0.16768541     1.43099416
Ti     -3.92715685     4.43015793    -3.68469473     0.12512155    -0.65950647    -2.07180423
Ti     -6.20618909     8.65638717    -2.04168318     2.45293906    -0.38892188    -0.22145148
Ni     -5.85456741     2.43978772    -8.07495688    -0.89803753     0.87773933    -0.13269934
Ni     -5.88872454     2.16650464    -4.04035956     0.42752107     0.70486761     0.04925247
Ni     -9.78012226     6.50445705    -7.92102556    -0.89086138     0.33559677     0.61230275
Ni     -9.71306505     6.45663727    -4.03306903    -0.41074154    -0.38475861     0.36303571
Ni     -1.92885387     2.12764229    -8.06601500    -0.16910130     0.15686655     0.63399912
Ni     -5.86501684     6.52764990    -3.94070981    -0.52368138     0.27206994    -0.12531882
Ni     -2.08441075     0.10810759    -5.96974281     0.71010359    -2.75505957    -0.03157252
Mo    -10.00477446     8.71812037   -10.16834073    -1.16464601     0.17247654     1.24168601
Mo     -9.76608058     8.70259704    -6.45665499    -0.34742778     0.74989767    -0.38586054
O      -1.99280368     1.86807146    -1.94965032     0.59461787    -0.05233380    -0.41549554
O      -1.87689565     1.88097175    -6.00175560    -1.07832096     0.85213017    -0.29421582
O      -5.89551291     6.65820963    -1.96156310     0.01541663     1.25131522    -0.08160535
O      -5.96248510     6.90945043    -5.93919457    -0.06260761     0.15092124    -0.13036865
O      -5.92697697     2.17804833   -10.06609682    -0.19882451    -1.48567667    -0.83049835
O      -5.75891134     1.93991304    -5.98727065    -0.61993703    -0.03984163     0.07574907
O      -9.79706603     6.86170268    -9.81159975    -0.17753607     0.56432276    -0.52631672
O      -9.79951886     6.82791709    -5.92402612     0.18424024    -0.33889935    -0.91332926
O      -3.83106354     2.31091202    -3.90242106    -1.19818347     0.88897792    -0.72353966
O      -4.00180370     2.47138732    -8.14251351     1.36230216     0.24042631     1.00739143
O      -7.87933248     2.35930693    -4.00937025     0.18649836     0.31949888    -0.43141961
O      -7.82085276     2.43205757    -7.91530171     0.35842252     0.41373255    -0.60166345
O      -3.93002039     6.35172967    -3.84733971     0.54083183     0.05565210    -0.95983516
O      -3.91955072     6.38945630    -7.92552685     0.01529595    -0.15916693    -0.00260939
O      -7.77933490     6.31519125    -3.94589152    -0.17672651     0.05412061    -0.08292288
O      -7.88427299     6.40682897    -8.06686778     0.59176081    -0.30301125     1.22417035
O      -3.78796354     4.47040600    -1.98380688    -0.45489392    -0.20112697     1.39303944
O      -4.00224872     4.40136272    -5.99398423     0.88484137    -0.05412716    -0.76080298
O      -7.79981604     4.43886934    -9.94340488    -0.55616156    -0.33907026    -1.16612951
O      -7.89201432     4.47113021    -5.98717302     0.20354151     0.01702605    -0.63542659
O      -3.98919262     0.06620249    -9.91583498    -2.45254672    -0.29700428    -0.38819084
O      -7.97065069     8.68791992    -6.02159021     0.29225688     0.23599792    -0.29187896
O     -11.50258635     8.69380835    -6.18776428    -0.77781850     0.22299190     0.53347413
O      -3.95594664     8.62434542    -6.05996446     1.23461733     0.51073585     0.19340882
O      -1.93427216     4.08206032    -3.98049934    -0.97655367     0.91339658    -0.36264638
O      -9.72284890     4.48055543    -4.12395720     0.37456750     0.12449760     0.60575186
O      -5.84081420     4.16625203    -3.98176452     0.55400551    -0.35253467    -0.28398656
O      -5.85819909     4.40555888    -7.98729438    -0.20504956     0.50489529    -0.08643381
O      -2.04727838     0.21786643    -3.97873469     0.33023786     0.08311816     0.23564683
O      -5.84394523     8.52504525    -8.01311822    -0.19480028    -0.65406716    -0.24374988
O      -5.92489550     0.28069432    -3.93936617     0.35275397    -0.26091071    -0.58503872
O      -5.89028119     0.66391194    -8.28152307     0.17978820    -1.24643619     1.16789228
