# total energy = -630.46741871 eV

CRYSTAL
PRIMVEC
        0.00279571     0.02951795    -7.98606283
       -7.83802570     0.01298533    -3.99532603
       -3.92160916     8.71933433     0.00634407
PRIMCOORD
56 1
Li     -3.98502366     2.32975720    -1.93217917     0.22627233    -0.14533428    -0.10984498
Li     -4.03096398     2.23056586    -6.05639046     0.11860879     0.13074838     0.48585048
Li     -7.86211252     2.36721345   -10.11419091    -0.03757751    -0.35748705     0.38006701
Li     -7.75989029     2.36503376    -6.03581421    -0.45892147    -0.04850842     0.39170909
Li     -3.83528119     6.64883636    -1.91502914    -0.53530886    -0.30980827    -0.26951159
Li     -3.89962329     6.59772978    -5.72764246     0.20887884    -0.53687537    -0.37071285
Li     -7.85828685     6.42633614    -9.82035334     0.21021622     0.18150520    -0.25659066
Li     -7.87706344     6.47687422    -5.99549955     0.48010695    -0.03966961     0.57109360
Ti     -1.98883450     2.21916332    -4.09776367    -0.05712043     1.40254745     0.66000376
Ti     -5.72000669     6.85078916    -7.88303087    -1.09049873     1.16618358    -0.61291471
Ti     -7.63270904     4.37424426    -7.87285934    -1.63003262     0.36521030     1.34207970
Ti     -7.81764143     4.42155351    -3.77294323    -0.46665136    -1.60606066    -0.76492361
Ti     -3.86770288     4.41106113    -7.75606461     1.56726236    -0.30713200     1.51719346
Ti     -4.06267400     4.39687862    -3.70542593     1.21674564     0.07210552    -0.16348530
Ti     -6.09796477     8.71835415    -2.17021840    -0.72823144    -0.42830422    -0.47675772
Ni     -5.82629349     2.27265850    -8.12154468    -0.36905571     0.38532439     0.50957265
Ni     -5.90723535     2.16111661    -4.01420973    -0.72817682    -1.00748980    -0.65570774
Ni     -9.77547593     6.50523184    -7.65581107     0.04101671    -0.41038288    -2.88010618
Ni     -9.73510632     6.69742091    -3.95992723    -0.01224481    -0.48457972     0.39505936
Ni     -1.94365431     2.06906992    -8.01244170     0.03080217     0.63814931    -0.44195442
Ni     -5.85429035     6.65906481    -4.02509210    -0.10800658    -0.22055261     2.06725092
Ni     -2.11382750     0.07840163    -5.91700770     0.36470540    -1.64180423    -0.85189094
Mo     -9.96906868     8.63078220   -10.23822459     1.56554433     0.23958770    -0.60492228
Mo     -9.82054179     8.71459910    -6.38817231     0.21489674    -0.70894202     1.37543015
O      -2.00771721     1.89984541    -2.10247778     0.55225922    -0.34639495     0.29796093
O      -2.06592863     1.87005650    -6.03267617     0.01019662     0.23745025     0.03194488
O      -5.86312714     6.73154602    -2.01672793     0.27745036     0.70333674     0.56336868
O      -5.84795195     6.88100923    -5.80153252    -0.24738286     0.73083577    -2.30600944
O      -5.93233247     1.84773177   -10.05291508     0.68268276     1.78099703    -0.32434157
O      -5.91562911     1.92485615    -6.02201460     0.78977140     0.91207319     0.00392101
O      -9.69159026     6.88251853    -9.67021009    -0.80812927    -0.65292405    -0.31149156
O      -9.77487532     6.74672750    -5.89541022    -0.38478262     0.40239789     1.21751404
O      -3.96932617     2.42522607    -3.94307078     0.35459908    -0.70699560    -0.76780928
O      -3.90278915     2.48209453    -7.93372681    -0.86245719    -0.87807029    -0.42550999
O      -7.89346776     2.31057684    -4.02372880     1.06081492     0.53251550    -0.23830998
O      -7.76715450     2.42097100    -8.08194208    -0.10877281     0.03542926     0.17024092
O      -3.86942785     6.37063492    -3.91305002    -0.03048691    -0.26075149     0.90278250
O      -3.84847707     6.47782927    -7.97090113    -0.37471322    -0.21722368     0.34945826
O      -7.85128858     6.30543985    -3.88824757     0.15056551     0.66975971    -0.48994194
O      -7.66543235     6.41550190    -7.89786670     0.07735671    -0.55906378    -0.43508299
O      -3.91092502     4.31573947    -1.94805287    -0.04791902     0.78946797    -0.09368607
O      -3.94080989     4.60870821    -5.93571025     0.20620795    -0.46982801    -1.85338132
O      -8.08754364     4.24848749   -10.01884152     0.64628336     1.10788687     0.63448617
O      -7.83347885     4.49678140    -6.08810258    -0.02183717    -0.71987156    -0.51302623
O      -7.91508945     8.68038210    -2.06127063     0.84594862     0.13605827    -0.27312945
O      -8.01242856     8.57901012    -6.04046367     0.65370568     0.70876539     0.06069975
O      -7.64862423     0.02124395    -6.10248288    -1.25118939    -0.85723265    -0.11158140
O     -11.66440420     8.68439399   -10.02077191    -1.88358379    -0.44737381     0.27558770
O      -1.98371248     4.05340817    -4.00073172     0.00565088     0.64343327    -0.02298879
O      -1.92581223     3.86685846    -0.12725988    -0.33444261     0.77198603     0.35557721
O      -5.89234592     4.00663297    -3.95439339    -1.19035003     0.72239847    -0.03622578
O      -5.78677907     4.36874155    -8.05028094     0.29011757    -0.16624686    -0.21017610
O      -1.87590308     0.22128505    -4.10022619    -0.32094227    -0.04645355     1.63204426
O      -1.86688254     0.03766446    -8.11961579    -0.15359100    -1.24850210     0.69076131
O      -6.05085255     0.24531994    -4.10035126     1.01405010     0.07268029     0.73789862
O      -5.88124141     0.39414002    -8.17115781     0.43003829     0.89155145    -0.62944717
