# total energy = -630.59118116 eV

CRYSTAL
PRIMVEC
        0.00285542     0.02004370    -7.95977623
       -7.82940539     0.00763210    -3.98158109
       -3.91729101     8.74642787     0.01461334
PRIMCOORD
56 1
Li     -3.84938458     2.34606363    -1.91989299    -0.27506170     0.05867117    -0.06835354
Li     -4.00655704     2.21835440    -5.99494045    -0.00851642    -0.14037034     0.32249098
Li     -7.90925982     2.37474598   -10.07012909     0.23068173     0.07748548     1.08670139
Li     -7.71185523     2.10826504    -5.91424121    -0.93741735     0.28078099     0.05238857
Li     -3.72775768     6.30887193    -1.96915149    -0.94345105    -0.03080449     0.26206883
Li     -4.07543898     6.82804506    -5.69185468     0.54549684    -0.25747428    -0.45168832
Li     -7.92327622     6.37153924    -9.88747534    -0.07978553     0.13149052    -0.16085157
Li     -7.85833892     6.69474830    -5.94267545     0.34061411    -0.16119597     0.59906498
Ti     -1.99849622     2.16045330    -4.03282083     0.39807374    -1.15936921    -0.05702025
Ti     -5.83583322     6.67062224    -7.95061731     0.85882961    -0.86261359     0.66690493
Ti     -7.78248128     4.44227522    -7.60892210     0.53466142    -1.50523949     0.36363535
Ti     -7.73332149     4.30503094    -3.75225775     1.14200125     1.37833577     0.41646171
Ti     -3.74637816     4.32883749    -7.66325098     0.52755199     1.21959707     0.65974613
Ti     -3.81505168     4.42907102    -3.82900269    -1.69342594     0.02076909    -0.18407084
Ti     -6.08889415     8.67279435    -2.01858188    -0.47397528     1.47117420     0.35078590
Ni     -5.82968209     2.36838142    -7.95628438    -0.85029299    -0.13101082    -0.61771437
Ni     -5.84062964     1.98384960    -3.99895786    -0.37606169     0.35498720    -0.65747947
Ni     -9.76779180     6.59540151    -7.91425510    -0.72523614     0.16307860     0.61990729
Ni     -9.76909099     6.55160164    -3.97362081    -0.50581612    -0.99521904    -0.08829593
Ni     -1.95863534     2.00872758    -7.97706549     0.34568055     0.88317339     0.31300798
Ni     -6.00870998     6.74099793    -3.83846616     0.20023164    -0.34876423    -0.88634038
Ni     -2.03037744     0.08778541    -6.09858809    -0.52373828     1.31462342     1.49723360
Mo     -6.00946767     0.11727821   -10.25926002     1.14386895    -0.04293691    -1.12095574
Mo     -9.81805725     8.64948091    -6.38430609     0.88806394    -0.23377249     0.19751096
O      -1.92076502     1.84881023    -1.93361894     0.03139150     0.30110746    -0.03306183
O      -2.00589182     1.98959030    -6.03904131    -0.02273809    -1.17145123     0.02130560
O      -5.83714404     6.79969674    -1.89968572     0.05859515    -0.46806859    -0.33158538
O      -5.89549107     7.09403906    -6.01631386    -0.22850945    -1.84540714     0.34086476
O      -5.80408479     2.04921236   -10.11894884    -0.00923969    -0.67430101     0.61233830
O      -5.93089248     1.87487208    -5.91778071     1.18304417     0.03659229     0.46198451
O      -9.80996296     7.02100373    -9.73136998    -0.38687771    -0.68022437    -0.15265268
O      -9.74747643     6.69178194    -5.96334248    -0.11549383     0.51154658    -0.93776428
O      -3.90852248     2.34969604    -3.97641756    -0.17547510     0.07780728    -0.12041169
O      -3.90742818     2.41352501    -7.89683156    -0.05955710     0.09829828    -0.76503387
O      -7.82353324     2.38746843    -3.93612429     0.34964871    -0.68340829    -0.48579883
O      -7.83138938     2.47836733    -8.03949993     1.00599227    -0.30098262     0.51128242
O      -3.86544446     6.35739072    -3.90028857     1.21955566     0.76794865    -0.26263521
O      -3.90507471     6.35412782    -7.93701987    -0.00900550    -0.18264935     0.30730142
O      -7.99992237     6.33351238    -3.93996594     1.80978924     0.33701239     0.03741729
O      -7.86625559     6.33254987    -7.92325155     0.21383659     0.55466018     0.14804574
O      -4.04168069     4.31318521    -2.08728923     0.37856470    -0.12210622     1.06001353
O      -4.06024931     4.22671251    -5.91328947     0.39539154     0.21315190    -0.16927701
O      -7.79287740     4.44903735    -9.92473070     0.03586016    -0.49413562    -0.05101233
O      -7.83767041     4.32880296    -5.83686810    -0.20002252     0.10299842    -1.46149614
O      -7.86893841     8.63524209    -9.93686255    -1.07000840     0.72459977     0.20353451
O      -7.97512025     8.69109844    -6.06480713     0.05893626     0.34750071    -0.43882552
O     -11.56231207     8.73541388    -6.05776009    -0.64752801    -0.48674428    -0.03865577
O      -7.76124945     0.13325019   -10.04303084    -0.30785828     0.06167348    -0.07459514
O      -1.91970172     3.99104328    -3.89344379    -0.30693124     1.53006365    -0.28183478
O      -9.67163891     4.55721417   -11.75671880    -2.41130006     0.56550580    -0.62920153
O      -5.85610866     4.93953675    -4.00274984    -0.65220949    -0.45339276    -0.11467352
O      -5.84635542     4.59589378    -7.83384614    -0.30318142    -0.49723238    -0.31502196
O      -2.19751059     0.13862791    -3.88811124     1.24674388    -0.57865784    -1.59954308
O      -5.81556524     8.62764155    -7.94302108     0.03578525    -0.77479979    -1.10544594
O      -9.67411878     8.40342012    -4.16357052    -0.75742803     0.50257267     2.29308746
O      -5.84815234     0.49493792    -8.17882232    -0.04772526     0.67344335     0.27727568
