# total energy = -630.19909817 eV

CRYSTAL
PRIMVEC
        0.00285542     0.02004370    -7.95977623
       -7.82940539     0.00763210    -3.98158109
       -3.91729101     8.74642787     0.01461334
PRIMCOORD
56 1
Li     -4.00252483     2.51549018    -2.00400322     0.41892193    -0.84097011     0.84742939
Li     -3.93380045     2.13580933    -5.96413627    -0.05573309     0.32915655     0.02269956
Li     -7.78859583     2.21209373   -10.05851342     0.13294355     0.13022112     0.12369745
Li     -7.74611441     1.80818734    -5.85757257    -0.25252201     0.41237312    -0.19096403
Li     -3.89357944     6.33822408    -2.02669063     0.14984723     0.91461691     0.42055745
Li     -3.81942179     6.37491375    -5.82837318    -0.76428138    -0.22251481    -0.20607658
Li     -8.04740982     6.39188892   -10.03549485     0.51074642    -0.02139935     0.45942552
Li     -7.75707204     6.37522629    -5.82901070    -0.44337584     0.33184834    -0.09645818
Ti     -1.84095386     2.18560845    -4.14790425    -1.02728783     0.25920491    -0.04055541
Ti     -5.92533939     6.61075818    -8.01646026     0.64922446     2.51270611    -0.22759861
Ti     -7.73562289     4.41115679    -7.73833165    -2.39596163    -1.55121164     0.85689202
Ti     -7.97442901     4.35749728    -3.78606628     0.85303183     0.33320974    -0.14040767
Ti     -3.92395270     4.45472992    -7.76839830     1.66713735    -0.67979240     3.14863490
Ti     -3.91201951     4.35967688    -3.65777053    -1.01062285    -0.01474214    -4.14359685
Ti     -2.22413775     0.06016212    -2.13614314    -0.58656885    -1.67408875     0.95628076
Ni     -5.85239030     2.41380151    -7.91406844     0.16682210    -0.03982461     0.07722260
Ni     -5.83911582     2.21364888    -4.01226627     0.04107427    -0.26381534    -0.64993653
Ni     -9.78694387     6.71273010    -7.90610885    -0.48771575    -0.90244016     0.34358118
Ni     -9.88381839     6.66602725    -3.97465018     0.90204298    -0.67009223    -0.47748698
Ni     -1.87213713     2.13336993    -7.95536800    -0.91720653    -0.22509556    -0.07488363
Ni     -5.88498251     6.58701537    -3.99082156     0.28377164    -0.30876005     0.51666869
Ni     -5.91026166     8.68867689    -5.91151261     0.13404758    -0.16485316    -0.88453469
Mo     -5.97753929     0.03303279   -10.15008252    -1.77070247     1.51498575    -0.80827423
Mo     -9.71668682     8.61372467    -6.30575199     1.36502975     0.06163019     0.15991401
O      -1.98317886     1.87201166    -1.90857793     0.57874642     0.37977699    -0.07667789
O      -1.94943571     1.84059758    -6.06188993    -0.03223194    -0.04567981     0.45523204
O      -5.79804163     6.81211003    -1.95261094    -0.63180289    -0.12791551    -0.74771977
O      -5.82170053     6.84091395    -5.85336670    -0.46350737     0.20467558    -0.28127214
O      -5.82456916     1.95479105   -10.03225347    -0.29903304     0.94357169    -0.05550265
O      -5.88127818     1.88077793    -5.92538801     0.76386156     0.74483972     0.71038847
O      -9.86398853     6.98254804    -9.77044647     0.10259081    -1.69923654     0.76538224
O      -9.73660171     6.71047986    -6.01140903    -0.15200453    -0.14970545     0.05021262
O      -3.82944212     2.22927675    -3.93098832    -0.59823700     1.35531325    -0.03912764
O      -3.99117536     2.57552526    -7.84294299     0.74655222    -1.44106241    -1.27513594
O      -7.80722528     2.42036318    -4.07124468    -0.11593809    -0.13623628     0.59849371
O      -7.73395520     2.45452795    -8.01061455    -0.70541118    -0.58179538     0.05774570
O      -3.92773045     6.35502896    -3.95434522     0.41782495    -0.61904616     0.46286170
O      -4.01560012     6.39594344    -7.86729000     0.27129376     0.81798576    -0.55892303
O      -7.78442999     6.34831254    -3.94277277    -0.12083860    -0.02441924     0.00709654
O      -7.89497040     6.23858783    -8.04829702     0.14302492     2.14247652     0.05850519
O      -3.75079183     4.46310779    -1.94941076    -0.42762375    -0.43455634     1.43714460
O      -3.85313200     4.40230341    -5.96889390     0.00783203     0.35024607    -0.50706662
O      -7.91811232     4.41582238    -9.96581382    -0.17929001    -0.41763664    -0.17873031
O      -8.16275368     4.49380412    -6.03140170     0.77389828    -0.31084083    -0.03458970
O      -8.01225757     8.72393402    -9.86904177     1.47215933    -0.05869619    -0.44808213
O      -7.86152495     8.57631452    -6.12179098     0.23497803     0.45085499     0.59152748
O     -11.45767554     8.62033172    -6.02820354    -2.01055369     0.20231341     0.31149618
O      -7.85570337     0.12940752    -9.94604063     2.30978434    -0.30618920    -0.55840336
O      -2.03895521     4.02063547    -4.08905168     0.90037078     0.09622454     0.11974819
O      -9.84910379     4.69447566    -3.97148982     0.51266643     0.57065700    -0.03660975
O      -5.86580920     4.19837966    -3.98775822     0.26605079    -0.16795930     0.05580595
O      -5.88184245     4.48920064    -7.78229311     0.05977724     0.09444503    -0.82006395
O      -1.91423767     0.16318077    -3.99831273    -0.26528806     0.35945259     1.04744961
O      -5.89337197     8.50178071    -7.99297367    -0.11239516    -0.88135123    -0.15406989
O      -9.65902397     8.66904715    -4.02773371    -0.80042180     0.06782453     0.68756976
O      -5.78824128     0.59646240    -7.99749246    -0.36574666    -0.35788766    -1.55949268
