# total energy = -630.81333460 eV

CRYSTAL
PRIMVEC
        0.00285542     0.02004370    -7.95977623
       -7.82940539     0.00763210    -3.98158109
       -3.91729101     8.74642787     0.01461334
PRIMCOORD
56 1
Li     -3.91141731     2.07539955    -1.92852074    -0.12013354     0.15551540    -0.44638499
Li     -4.01628738     2.02908616    -6.07686875     0.35997072     0.25626579     0.28106183
Li     -7.80140954     2.31563279   -10.13350351    -0.05086317    -0.26975447     0.10629879
Li     -7.77023092     2.16823102    -6.04255921    -0.09811199     0.43543794     0.15149505
Li     -3.94617636     6.29797656    -2.05543117     0.28574761     0.19802088     1.05369752
Li     -3.89425695     6.63727040    -5.91301969    -0.08249952    -0.50893104     0.51700602
Li     -7.73919472     6.68861626    -9.96086266    -0.30616861    -0.02367007     0.31143352
Li     -7.88481876     6.38011595    -5.95404706     0.40530512     0.19296125     0.62340162
Ti     -1.85259352     2.24810396    -4.19414259    -0.77169055     1.73976604     1.19127512
Ti     -5.80649889     6.85389966    -7.86492473     0.27356166     0.22863428     0.74819198
Ti     -7.77115261     4.50902205    -7.86593618    -1.20730874    -0.98897699     1.91590085
Ti     -7.95609456     4.42136801    -3.83557970     0.85004317    -0.35933576     0.41828779
Ti     -3.92958215     4.34927229    -7.68830530    -0.53237206     0.16531203     0.01845209
Ti     -4.09899725     4.29817220    -3.67816235     0.81043923    -0.43494121    -0.51419847
Ti     -1.95077337     0.03063439    -2.16104008    -0.60324523    -0.32206988     0.29395282
Ni     -5.87504723     2.34924404    -8.05196214     0.29373452    -0.84543158     0.35534311
Ni     -5.91166417     2.27588131    -4.05435089    -0.02336923    -0.72640632    -0.08111531
Ni     -9.84873984     6.47869049    -7.77946998     0.63810962     0.07563423    -0.70418273
Ni     -9.70352346     6.41343183    -3.91835752    -1.63225176     0.16489688    -0.49387269
Ni     -1.94311280     2.34122056    -8.10466764     0.63993175    -0.28675942     0.85749733
Ni     -5.90988786     6.49233930    -3.87762723     0.70874723     0.40379333    -1.04291779
Ni     -2.00249676     0.03829379    -5.79682917     0.19606131    -2.20642372    -1.86312720
Mo     -9.79554700     8.69083788   -10.09428709    -0.86767719     0.79097656    -1.02307044
Mo     -9.82632193     8.71681156    -6.32631355     1.07202952     0.25566834     0.48211448
O      -1.90727440     1.88765547    -1.94758805    -0.27522570     0.20156310    -0.60295077
O      -2.02053603     1.84512920    -6.03844701     0.42278675     0.60222982     0.13844805
O      -5.78643183     6.79195559    -1.95925934    -0.59344310     0.10975920     0.46581896
O      -5.87390877     6.78243091    -5.85872791    -0.20776369     1.12112116     0.39506104
O      -5.94631485     1.98180155    -9.98495258     0.73012585     0.20947335    -0.65314437
O      -5.87582697     2.05903903    -5.99925294    -0.08988845    -0.86567087    -0.09211760
O      -9.69704719     6.87307137    -9.71542741    -0.04734552    -1.02706750     0.28532739
O      -9.78475508     6.86065302    -5.96175453    -0.51042841    -0.93152676     0.95444431
O      -3.96632836     2.33882726    -3.90805534     0.30080078     0.46961078    -0.64792857
O      -3.78809158     2.46089066    -8.06453187    -1.15424672    -0.49704957     0.77059913
O      -7.84897514     2.50793426    -4.17507237    -0.16217125    -0.88580330     0.79454610
O      -7.80824531     2.39453679    -8.01808944    -0.53358702     0.03865590    -0.31910366
O      -3.85224261     6.30306085    -3.89720092    -0.78636324    -0.40949794    -0.24244855
O      -3.92695042     6.35434984    -7.88409252    -0.06562123     0.22697510    -0.28813229
O      -7.85951822     6.37426636    -3.92539492     0.77664342    -0.30374715    -0.06521912
O      -7.77920888     6.43764981    -7.82243202     0.03443318    -0.30594692    -1.26745392
O      -3.90718879     4.33818381    -1.92587264    -0.74029309     0.56209422    -0.89797048
O      -3.98757021     4.43095687    -5.95734071     0.59380302    -0.10976436     0.52080098
O      -8.03018750     4.19103011   -10.00008581     0.20765736     0.86722582    -0.05250901
O      -7.94574011     4.40070344    -6.05879338    -0.09609738     0.17978839    -1.20433187
O      -7.83342543     8.68808080    -2.09382443     0.91695699     0.20096825     0.55299573
O      -4.15031689     0.05153514    -5.93205369     0.31896817    -0.11142455    -0.10969859
O      -7.71378314     0.05898701    -6.08743722    -0.45846253    -0.14801522     0.44491941
O     -11.58234605     8.62912015   -10.02266934    -0.10512469     0.23502842     0.66596344
O      -2.02451136     4.12551066    -3.95424118     0.20612159    -0.30160121    -0.61238573
O      -2.04210601     4.40979629    -0.16630506     0.94421345     0.36445566     0.37009924
O      -5.98402202     4.19082545    -4.13138380     0.45848415     0.35486786     0.73122694
O      -5.92018547     4.20826620    -7.89157327     0.60210796     0.61470038    -0.91974172
O      -1.80176874     0.26374972    -3.95716458    -0.40681882    -0.15301964    -0.69994893
O      -5.82447390     8.63428592    -7.79179735    -0.19356489    -0.27143466    -0.43568805
O      -5.84780677     0.11154624    -3.93503493    -0.10674819     0.83490089    -0.86251402
O      -5.78620636     0.49940717    -8.09771497    -0.08052086     0.57268755    -0.25170487
