# total energy = -630.78640947 eV

CRYSTAL
PRIMVEC
        0.00279571     0.02951795    -7.98606283
       -7.83802570     0.01298533    -3.99532603
       -3.92160916     8.71933433     0.00634407
PRIMCOORD
56 1
Li     -3.90151751     2.37178625    -1.87088394    -0.02978678    -0.01363022    -0.51896511
Li     -4.10155728     1.91597043    -6.02315559     0.61052787     0.28251195    -0.02317375
Li     -7.75006406     2.08948341    -9.95490169    -0.51778247     0.16286671    -0.48160825
Li     -7.84331806     2.15587690    -5.86021738    -0.29639092     0.16457839    -0.45205497
Li     -3.87012655     6.44925065    -1.88934203    -0.25572431    -0.13657641    -0.09852223
Li     -3.80578658     6.59410166    -5.84173299    -0.71715397    -0.34778471    -0.06952281
Li     -7.83736196     6.50928428    -9.93344351    -0.17334285    -0.07438520    -0.24838454
Li     -7.82309730     6.46310697    -5.82167865    -0.49913670     0.00947889    -0.15530165
Ti     -1.94408572     2.36648142    -4.22690674    -1.18444580    -0.19451512     0.41553801
Ti     -5.96796068     6.78807965    -7.98974653     1.84595571     2.01202761     0.35794021
Ti     -7.79330407     4.40061137    -7.73149068    -0.20183862    -1.12688431    -1.33985284
Ti     -7.75832414     4.38069138    -3.68386271    -1.60210407     1.06121568    -0.70457266
Ti     -3.97610865     4.35712621    -7.70497690     1.15115463    -0.39209098     1.18985063
Ti     -4.14158520     4.37561710    -3.78960535     0.45349165     0.02939548    -0.27333473
Ti     -2.05992352     0.09047479    -2.27492271     0.12025212    -0.05973703     0.92744602
Ni     -5.91864520     2.27524710    -8.05290571     0.25363972    -0.26717794     0.40501793
Ni     -5.95292018     2.13609265    -4.05180061     0.62533981     1.48577148    -0.12083025
Ni     -9.80191149     6.45796197    -7.85665301    -0.48627795    -0.29708819     0.55266163
Ni     -9.75348401     6.34533925    -3.88677889    -0.46490300    -0.05885029    -0.65479176
Ni     -1.94977970     2.42655217    -7.93592536     0.51158815    -0.88704180    -0.66600149
Ni     -5.80688172     6.78287837    -3.98151971    -0.80844944    -0.81876795    -0.34763179
Ni     -5.89683816     8.68353891    -5.99382672    -0.08234024     0.61311579    -0.59780641
Mo     -9.76760237     8.73237015   -10.21083284    -0.47373418    -1.15724225    -0.17601610
Mo     -9.79947550     8.59807799    -6.32784502     0.87073824    -0.83065367    -0.71866618
O      -1.97661122     1.94921861    -1.89134562     0.28582578    -0.38189911    -0.69774703
O      -1.83620147     1.89783798    -6.06796943    -0.79878760    -0.59063791    -0.22953740
O      -5.87470600     6.85707079    -2.09437823    -0.06907238    -0.13331481     1.19751347
O      -6.03578909     6.81330524    -5.91317432     1.72987366     0.64387198    -0.27564819
O      -5.94210773     1.96876937   -10.00050910     1.31767246     1.13907539    -0.28270389
O      -6.00571794     1.80385684    -5.95399115     0.81778899     1.67685355    -0.64555914
O      -9.81359282     6.84439042    -9.77679212     1.05387889    -0.08070797    -0.31569955
O      -9.81050864     6.71682981    -5.89610027     0.30356172    -0.05012115     0.07929507
O      -3.91335597     2.38955845    -4.10186168    -0.42279573    -0.10703425     0.46151289
O      -3.83655458     2.33753864    -8.01028010    -0.94711342     1.34674657     0.76445617
O      -7.85421873     2.50502069    -4.03379330    -0.63407983    -1.47577663     0.34790816
O      -7.90633331     2.40974166    -8.07471532     0.93842721     0.17912689     0.76122846
O      -3.87505768     6.32298883    -3.81275918    -0.07894438     0.57090507    -1.57237869
O      -4.03539150     6.30502074    -7.91245503    -0.04395719     0.32926581    -0.03687650
O      -7.84733537     6.34431725    -3.98032444     0.11859755    -0.03722973     0.91206212
O      -7.79730714     6.31768268    -7.91352869    -0.49891284     0.81166604    -0.72423389
O      -3.90343918     4.47980858    -2.04879938    -0.41206274    -1.04092671     0.81403689
O      -3.80197340     4.42538760    -5.92286667    -0.20869657     0.20709526    -1.05961468
O      -7.88639616     4.38403937    -9.93867863     0.09074167     0.42194359     1.19447628
O      -7.93353339     4.44911749    -6.04530447    -0.06340310    -0.24080423     1.53167384
O      -7.87843181     8.68222213    -2.08892525     0.49468174     0.01364513    -0.17275283
O      -7.99493843     8.62575180    -5.94591736    -0.08769103     0.46709819    -0.54343145
O     -11.57168965     8.60592732    -6.21727931    -2.18655043     0.10026624     0.84907892
O     -11.53205040     8.68807222   -10.13600636    -1.67301733    -0.15138972     0.35812222
O      -2.06815235     4.17667185    -3.99132045     1.19512906     0.40140587    -0.14131531
O      -9.76177327     4.38459007    -4.08927010    -0.54548380    -0.14993657     0.49405542
O      -5.99979969     4.07100408    -4.11248666     2.08679503    -0.21907250    -0.09313940
O      -5.84994182     4.23824460    -7.86559107    -0.85250299    -0.13512622    -0.54766037
O      -1.90034553     0.27994197    -4.09472186    -0.09981569    -0.08138312     0.22245329
O      -5.92485576     8.65366312    -8.00578692     0.03884569    -2.08030589     0.44552901
O      -5.86006565     0.34495374    -4.03715716     0.12458647    -1.24355974    -0.25955043
O      -5.87345649     0.42360892    -8.16814134     0.49080101     0.44865417     1.00616177
