# total energy = -630.89866823 eV

CRYSTAL
PRIMVEC
        0.00279571     0.02951795    -7.98606283
       -7.83802570     0.01298533    -3.99532603
       -3.92160916     8.71933433     0.00634407
PRIMCOORD
56 1
Li     -3.92982270     2.41677609    -1.91079459     0.07188590    -0.02407636    -0.21133954
Li     -3.84429884     2.08651333    -5.95168321    -0.50773755    -0.10039078    -0.08682534
Li     -7.83054737     2.16659581    -9.96698091    -0.22222235     0.30227706    -0.39192658
Li     -7.65411979     1.93752639    -6.11003870    -0.50932515     0.46480112     0.67621521
Li     -3.95510580     6.51428044    -2.13081087     0.11821188    -0.24279563     0.68102439
Li     -3.90004698     6.44416778    -5.72470271     0.07134548     0.22095941    -0.85033708
Li     -7.87239375     6.52884489    -9.87174293    -0.08376692    -0.25773350    -0.41302374
Li     -7.86123631     6.35020336    -5.85516386     0.16741557     0.29402186    -0.21627887
Ti     -1.89883758     2.31825755    -4.03617606    -1.15018679    -0.65312269     0.43253398
Ti     -5.79969273     6.70819782    -7.92159724    -0.03572602    -0.45488472     0.54906439
Ti     -7.84463807     4.41333535    -7.81623343     0.89629417     0.49055163     0.69294124
Ti     -7.79697252     4.32911647    -3.75721948    -0.80160766    -0.59146498    -1.57096961
Ti     -3.91163475     4.36263977    -7.57490851     0.40678527    -1.38033070    -2.72525367
Ti     -4.06471672     4.34819702    -3.85892356    -0.20789187     0.24634353     2.96087243
Ti     -6.22881165     8.69506843    -2.06748589     1.42109611     1.91352631     0.24401383
Ni     -5.78955908     2.43270560    -8.07207794    -0.59051194    -1.66608946     0.54153099
Ni     -5.87896213     2.09275170    -4.03772137     0.13206806     0.17431804     0.17715289
Ni     -9.78754955     6.56514580    -7.89262761     1.20058758     0.08418945     0.27800006
Ni     -9.82027020     6.34178470    -4.03190248     0.48009582    -0.13175516    -0.00243768
Ni     -1.95267690     2.30659207    -8.01764534     0.52157197    -0.46344604     0.10989387
Ni     -6.02044427     6.57562082    -4.04788582     0.81074858     0.58857049     0.84854455
Ni     -5.94161385     8.70663867    -5.96581499    -0.10296466     0.72343216     0.27304819
Mo     -6.03559625     0.09074525   -10.29489185    -0.06213061     0.41837184     2.17993936
Mo     -9.71360123     8.65732267    -6.36484218    -0.16218034     0.47900512    -0.68396041
O      -1.88304245     1.94713495    -2.09645428    -0.01628918    -0.74776789     0.24338628
O      -2.01652058     1.89037635    -6.03553638     0.69785179    -0.84841783     0.59233486
O      -5.85610622     6.88955171    -1.80035055     0.00288879    -1.32608159    -1.80927918
O      -5.86259023     6.85554476    -5.94308540     0.02056139    -0.01494395     0.08639373
O      -5.94206022     2.00054111   -10.12744463     0.72571609     0.36520550    -0.15785374
O      -5.72079160     2.03085321    -5.87297646    -0.70671357    -0.94924404    -0.36528053
O      -9.76257692     7.02981789    -9.67326736    -0.19543874    -0.41903950    -0.53065467
O      -9.78787537     6.75724925    -6.04665951     0.51415171    -0.44750929     0.35495120
O      -3.86451825     2.35851385    -3.88775157    -0.55592208     0.26113928    -0.87671823
O      -3.86009497     2.38415759    -7.97399393     0.05395051     1.19804090     0.16240201
O      -7.85195235     2.34900263    -4.00789522     0.20246763     0.52109699    -0.21756831
O      -7.83411648     2.45355423    -8.01665479     0.62823802    -0.29144094    -0.21750504
O      -3.72288153     6.32870683    -3.96438682    -1.17121199    -0.05348142     0.36022836
O      -3.86354204     6.23411925    -7.91296732    -0.81913652     1.11891759     0.06717333
O      -7.92837607     6.32265751    -3.90876444    -0.55230446    -0.17219186    -0.29873552
O      -7.73171976     6.39754850    -7.99417577    -0.93142920    -0.89927841     0.47052442
O      -4.01438074     4.39192303    -2.03363334     0.55386225    -0.03534226    -1.80963807
O      -3.80229195     4.39627779    -5.86563639    -0.16291909     0.06075706     1.36108780
O      -7.70872913     4.35533610   -10.04051325    -0.15628595     0.11584146     2.50022049
O      -7.73340833     4.43878648    -6.06667594    -0.39723101    -0.03562951    -0.36355790
O      -4.03682410     0.18003086    -9.91909370    -1.23394673    -0.22655749     0.07743563
O      -7.91126541     8.73401719    -6.04160799    -0.22316444    -0.30053109     0.13420988
O     -11.47808068     8.70928768    -5.98850583    -0.25356453     0.28641389    -0.02709722
O      -7.77752855     0.17656195    -9.94897916    -0.57952627    -0.68711374    -0.35093139
O      -1.93877972     4.16775263    -4.13387011     0.28708234    -0.10852362     0.37369754
O      -9.80204519     4.40667393    -3.99411863     0.21104624     0.30659187    -0.23528909
O      -5.93134804     4.67626588    -4.05895114     0.57812174     0.55138982    -0.56527254
O      -5.79563914     4.29176986    -8.03392036    -0.47234826     0.64499246     0.35458767
O      -6.15593680     8.64660028    -3.89074907     1.11440223    -0.15100927    -1.40972748
O      -5.91793152     8.48960598    -7.89243609     0.59142948     1.27451397    -0.18448689
O      -9.79509543     8.32507389    -3.97877659     0.13436249    -0.50500646    -1.50474154
O      -5.87306429     0.56006485    -8.10927385     0.16444068     0.51209604     0.48855201
