# total energy = -630.18074750 eV

CRYSTAL
PRIMVEC
        0.00279571     0.02951795    -7.98606283
       -7.83802570     0.01298533    -3.99532603
       -3.92160916     8.71933433     0.00634407
PRIMCOORD
56 1
Li     -4.11904180     2.21638858    -1.93167512     0.81272286     0.08397467     0.14575123
Li     -4.13305534     2.31007973    -5.83332446     0.53051078     0.07094390    -0.42549071
Li     -8.07226008     2.05247379    -9.89251714     1.53312079     0.17101378    -0.25704209
Li     -7.89547342     2.37083536    -5.97451189    -0.13101478    -0.14369385     0.19303398
Li     -3.93084555     6.62004829    -1.87348445     0.56598856    -0.04452368    -0.66877313
Li     -3.97027582     6.81458514    -5.98484467     0.50037619    -0.14162467     0.24599331
Li     -7.75857674     6.25800368    -9.98343149    -0.56980532     0.74930487    -0.13758695
Li     -7.79561964     6.41476940    -5.92535209    -0.10124176     0.20539323     0.13234515
Ti     -2.07864999     2.31021170    -3.95054287     0.41769731    -0.12901978     0.31380732
Ti     -5.79164246     6.53612336    -8.09332085    -0.12165287     1.24111712     1.23162775
Ti     -7.72761576     4.48071239    -7.80312299    -0.80730543    -4.03937196     0.96098104
Ti     -7.85036346     4.37219994    -3.78247920    -0.06640443    -0.66474863     0.20180549
Ti     -3.84151667     4.31646305    -7.66592453    -0.41672620    -0.37573139    -0.48382473
Ti     -4.11915956     4.51750173    -3.65635797    -0.19472161    -1.27392523    -2.58715569
Ti     -1.77557405     0.06904283    -1.96720924    -0.31038503     1.66812726    -0.42913116
Ni     -5.96436738     2.13067537    -7.91301884    -0.18799733     0.01037032     0.40102840
Ni     -5.97001336     2.11803828    -3.91642362    -0.38923712     0.34185369    -0.84723014
Ni     -9.83271501     6.29537889    -8.05315316     0.00972248     0.36023656     0.05867392
Ni     -9.81752004     6.50018297    -4.05751889    -0.01837474    -0.11346051    -0.10768975
Ni     -2.03267056     2.28643243    -7.92446728    -0.80896057    -0.15771497    -0.89208269
Ni     -5.84743238     6.65560470    -4.03056873    -0.44775736     0.56571543    -0.03382027
Ni     -1.95289318     0.15439959    -5.92693568     0.24994219    -0.74500078    -0.40934034
Mo     -9.69826010     8.72937469   -10.34888866    -2.34847750    -1.07354114    -0.40426300
Mo     -5.77569067     0.08523425    -6.37328837     0.61604696    -0.72751169     0.48254521
O      -2.03711225     2.10196494    -1.94392858    -0.32264353    -1.22540918     0.35027743
O      -2.00276917     2.10880708    -6.04099114    -0.79119867    -1.62701648     0.34362807
O      -5.88437959     6.86816236    -1.98234702    -0.15606971    -1.38904856    -1.32929634
O      -5.80867426     6.99354879    -5.89474942    -1.18254897     0.12698821     0.11763098
O      -5.91159999     1.75100735    -9.74240085    -0.19371978     1.79017778     0.42042594
O      -6.01676345     1.91918782    -5.99192649     0.21610897     0.74551900    -0.39229278
O      -9.75677229     6.81915133   -10.19221940    -0.16919879    -1.29789229     0.83825758
O      -9.87786435     6.92062570    -5.88556816     0.31346824    -0.81542612    -0.26663061
O      -3.97386260     2.37384777    -3.96156715    -0.56164664     0.60726264     0.83461466
O      -4.07731377     2.37893328    -7.95951298     0.51886201     0.54920263    -0.00625031
O      -8.05050295     2.39529180    -4.01802959     1.15105435     0.05972967     0.55248583
O      -7.85996091     2.38259401    -7.95782990    -0.38733497     0.54213005    -0.35317741
O      -3.93262252     6.36944970    -4.06244457    -0.29686111     0.20310804     0.15568082
O      -3.92231931     6.32416807    -7.90682554     0.12314448     0.43836874    -0.30067271
O      -7.93322213     6.32554061    -4.00471065     1.12980096    -0.26092769    -0.18029060
O      -7.79494625     6.27322377    -7.92967809    -0.68875808     2.06711593    -0.43107316
O      -3.97676658     4.64998214    -1.97485768    -0.31975764    -0.61768965     2.07463712
O      -4.03480574     4.25690707    -5.94907884    -0.06932578     0.44721269     0.08394011
O      -7.87011084     4.37997345    -9.96923972    -0.40768113    -0.04749857     0.00878946
O      -7.87202750     4.23680090    -6.02095539     0.21240479     1.18992547    -0.76513548
O      -7.96142229     8.70465648    -2.26421265     1.86490224     0.22066445     0.90116473
O      -4.04598893     0.12392801    -5.95434563     0.14118458     0.21641546    -0.78163517
O      -7.81568818     0.06555575    -6.08544514     0.36359845    -0.15628106    -0.11895132
O     -11.60245760     8.69456993   -10.15939853    -0.59231864     0.55339176     0.63057667
O      -2.17372631     4.33346139    -4.02286303     1.43611661     0.43666001     0.00297159
O      -1.99330328     4.38693591    -0.16973611     0.10359408     0.10570701     0.84773617
O      -5.99838990     3.97939982    -3.90377799     0.63922779     0.03116606    -0.20676802
O      -5.87542889     4.59813255    -8.02689275     0.65831186     0.04364106     0.02260278
O      -2.00490825     0.42698690    -3.91228669     0.14206518    -0.26541099    -0.65299770
O      -5.89846721     8.43812539    -8.07850063    -0.19738722     0.85321478     0.72746485
O      -5.89428099     0.19653234    -4.20359441    -0.32970220     0.50966833     0.69181269
O      -9.60449265     8.12086391    -8.06919314    -0.67790591     0.22848379    -0.62087434
