# total energy = -630.57723074 eV

CRYSTAL
PRIMVEC
        0.00279571     0.02951795    -7.98606283
       -7.83802570     0.01298533    -3.99532603
       -3.92160916     8.71933433     0.00634407
PRIMCOORD
56 1
Li     -4.04940106     2.41857547    -1.96548849     0.61241477    -0.12616727     0.37937937
Li     -4.03293905     2.19298283    -5.85246085    -0.06516570     0.12845089    -0.65547837
Li     -7.79713144     2.01976319    -9.91334887    -0.15928258    -0.34048554    -0.32498627
Li     -7.86355046     2.38290898    -5.83028074    -0.06955530    -0.06003588    -0.66208778
Li     -3.83771646     6.28902838    -1.87911820    -0.45139914     0.27389077    -0.13620782
Li     -3.77404491     6.82992609    -5.87694619    -0.64008047    -0.83648717     0.33947368
Li     -7.81754744     6.52670920    -9.82922492     0.29876672    -0.04250940    -0.23647850
Li     -7.70957721     6.27000843    -5.83896342    -0.50385428     0.01568643     0.15400936
Ti     -2.11623347     2.41092112    -4.02525084     1.41464869    -2.92382695     0.28592918
Ti     -5.86144256     6.84973880    -7.82512409    -0.07852650    -0.05972948     0.03364054
Ti     -7.83392213     4.36623088    -7.80235365     0.52701272    -0.19406493     0.81664359
Ti     -7.94790908     4.26307801    -3.58997602    -0.00687724     1.91365272    -1.67795675
Ti     -3.96989920     4.28640165    -7.67972007     0.05587700     1.25054525     0.16799961
Ti     -4.17661161     4.43622481    -3.81234780     0.41495370     0.92496306     1.25709242
Ti     -1.77200690     0.01475075    -2.14554720     1.38770357     0.70291078    -1.31705638
Ni     -5.94298605     2.33324571    -8.13331139     0.15634055     0.71638734     0.62715373
Ni     -5.95441590     1.89727393    -4.10175837     0.23474347     0.51016515     0.71215688
Ni     -9.76855161     6.50140526    -7.91470764    -0.08407666     0.22149841     0.39223265
Ni     -9.79796128     6.50760048    -4.11130760    -0.10890139    -0.28575738     1.13971599
Ni     -2.04743980     2.30702205    -7.97677832     0.15313924    -0.65533308     0.14136297
Ni     -5.98037123     6.52076114    -3.87788961     0.74165521     1.11927749    -0.37321462
Ni     -1.91518064     0.08074824    -5.96501916    -0.43877668     0.38930388     0.71491350
Mo     -9.71096638     8.64845708   -10.34026504    -1.36751412     0.35679490     0.34487274
Mo     -9.65866318     8.68663221    -6.43302042    -0.14694958     0.42260677     1.30527681
O      -2.00925001     2.00037299    -2.00443058     0.12551011    -0.60766784     0.34583138
O      -1.99612101     1.95271000    -6.06894065     0.24841899    -0.07561622     0.74217718
O      -5.81935274     6.83436737    -1.84176250    -0.69102746     0.20331639    -0.31003323
O      -6.02060983     6.95967826    -5.86969452     1.19931329     0.05817471     0.02419121
O      -5.79968636     1.89673433   -10.19058463    -1.49172790     0.42953203     0.11912433
O      -6.03731702     1.83518063    -5.98510661     0.45481921     1.00694549     1.04190149
O      -9.66339197     6.82712617    -9.77307856    -0.95418304    -0.10244863    -0.18694933
O      -9.78544102     6.87747189    -6.05223250     0.14791708    -1.74778002     0.23253435
O      -3.96455551     2.39696789    -3.86250205    -1.13984024    -0.04294456    -1.55121877
O      -3.99766470     2.39989021    -7.90626986     0.33951771     0.03648680    -0.64540869
O      -7.92947866     2.43058039    -3.93775463     0.09811772    -0.69621907     0.11206980
O      -7.89989434     2.39072266    -8.03742863     0.11220185     0.86818623    -0.03720687
O      -3.84186303     6.40052210    -3.94719359    -0.20605151    -1.27340481    -0.02301032
O      -4.05196992     6.37570130    -7.80062162     1.11474540    -0.96207890    -0.40241880
O      -7.82735515     6.41394573    -3.90812782    -1.14202779    -0.85835622    -0.08358179
O      -7.80074719     6.39538583    -7.78559922    -0.49693062    -0.32877177    -1.02745929
O      -3.90424752     4.36365294    -1.99180055    -0.02317883     0.07822226    -1.08568876
O      -3.90620281     4.23099196    -5.90282755     0.05513706     0.03701299     0.26224784
O      -7.77835955     4.53825888    -9.87745817    -0.26392952    -0.08330658     1.27822756
O      -7.66709760     4.38581206    -6.03816820    -0.52710052    -0.27539450    -0.10622485
O      -4.07287808     0.03708000    -9.94698303     1.36605035    -0.19295424    -0.21426606
O      -4.00887467     0.23903052    -6.14255589    -0.19975772    -0.89675042     0.15659334
O     -11.68858058     8.70436039    -6.18625489    -1.19991838    -0.01760651     0.45759355
O     -11.61021027     8.65243703   -10.05647486     0.99402040     0.90665819     0.54051854
O      -2.03844218     4.17493117    -3.96555920     0.90551200     1.62609623    -0.18960864
O      -9.82510352     4.52722718    -4.02431919     0.12058756     0.66231520     0.02459061
O      -6.00435715     4.66420569    -3.90838866    -0.26706798    -0.53237164    -0.28084133
O      -5.84470367     4.27017158    -8.06789993    -0.64772538    -0.37097301     0.09655941
O      -2.05970846     0.22410616    -4.01688343    -0.05830195    -0.08463577     0.33537955
O      -5.68973989     8.65171078    -7.83845454    -0.57893220     0.10140751    -0.89762713
O      -9.91723876     8.52672477    -4.19515971     0.79844539    -0.15337102     0.30083364
O      -5.90322281     0.50887831    -8.09329593    -0.29496094     0.34574201    -2.38038376
