# total energy = -630.66185805 eV

CRYSTAL
PRIMVEC
        0.00285542     0.02004370    -7.95977623
       -7.82940539     0.00763210    -3.98158109
       -3.91729101     8.74642787     0.01461334
PRIMCOORD
56 1
Li     -3.97215579     2.19493534    -2.11409321    -0.12655035     0.11176148     0.85682212
Li     -3.96431573     2.10402437    -5.98588132    -0.02739939    -0.13283221    -0.17440812
Li     -7.71136300     2.09170701    -9.99077699    -0.50750973     0.03514012     0.08961669
Li     -7.78620230     2.42778754    -5.81646128    -0.16710981    -0.10247847    -0.80284662
Li     -3.99524617     6.43596428    -1.99895914     0.07581961    -0.33750485     0.32767251
Li     -3.98903199     6.66144278    -5.98325831     0.04544299    -0.45321404     0.39507023
Li     -7.80521105     6.57989111    -9.85978459    -0.32238692    -0.27580252    -0.40512379
Li     -7.87911555     6.60403158    -5.87100961     0.47290983    -0.15029378     0.06229864
Ti     -2.03048436     2.31414684    -3.97108076     1.05134192    -0.71456278    -0.86628963
Ti     -5.90414666     6.92475691    -7.91817545     1.09659596     0.11636122    -0.10263758
Ti     -7.77212480     4.46249974    -7.62337420    -0.05011631    -1.29787718    -0.88354765
Ti     -7.77132333     4.41611481    -3.61962116     0.17713891     0.26421760    -2.86121087
Ti     -3.91522425     4.34727922    -7.67488894    -0.27868310     0.70072844     0.14851356
Ti     -4.01626002     4.38811246    -3.79430647    -0.94877847     0.30646424    -0.12081418
Ti     -1.81706391     0.01359775    -2.13130859    -0.85966087    -0.06023407    -0.42758711
Ni     -5.96473276     2.37143474    -8.04422344     1.12824216    -1.53887119     0.10969687
Ni     -5.96633247     2.11863209    -4.13587963     1.05391707     1.13740720     0.74392723
Ni     -9.80413932     6.40991115    -7.87960874    -0.75412476     0.18624418    -0.19974884
Ni     -9.73139701     6.33943278    -3.98853453    -0.75846102     0.42807959     0.74969888
Ni     -1.97056016     2.25881064    -7.94533481    -0.29973932     0.19642518     0.17824116
Ni     -5.87453256     6.84397968    -3.97117103    -0.00712913    -0.65607714    -0.18820330
Ni     -1.77165372     0.09359493    -5.96549924    -0.86969873    -0.31518951     0.01289281
Mo     -9.73314680     8.61115343   -10.20712489    -0.96509846    -0.03679106     1.39350639
Mo     -9.82028941     8.57323712    -6.27787487    -0.23941926     0.67244840    -1.17618708
O      -1.96730035     1.92598579    -2.02872704    -0.04024735     0.36967783     0.06104168
O      -1.93977762     1.86532641    -5.99018406     0.20904345     0.95216557     0.15893609
O      -5.94799940     6.79567453    -1.93171860     0.47948053     0.50819687    -0.49024551
O      -5.82557090     7.03970343    -5.90830701    -0.55558064    -0.78454429    -0.12556765
O      -5.85225064     1.89983198   -10.04855551    -0.19083432     0.27961279    -0.06575714
O      -5.87030176     2.00147760    -6.07533275    -1.14055567    -0.69127482     0.77721419
O      -9.97727561     6.65351186    -9.87426759     2.19458767     1.81211023    -0.13836346
O      -9.79305986     6.67845979    -5.92928131    -0.43291606     0.58599488    -0.27400678
O      -3.92319957     2.38187829    -4.03817378     0.01274901    -0.47343501    -0.35256980
O      -3.87081885     2.46256176    -7.92996611    -0.58927368    -0.33108692    -0.12238970
O      -7.93452691     2.47902637    -4.01863230     0.14542792    -0.49718299     0.69186118
O      -7.85374489     2.45375279    -8.01569926    -0.14571525     0.64736383     0.58594576
O      -3.91841927     6.33436657    -3.94981840     0.03771767     0.43710894     0.44930434
O      -4.02160996     6.42330343    -7.98603781    -0.12850292    -0.30470819     0.03019327
O      -7.76979373     6.43990293    -4.00147911    -0.36712744    -0.76660430     0.79874601
O      -7.78527649     6.36708097    -7.95822178    -0.32183352     0.59288324     0.61009290
O      -3.85353755     4.29595919    -2.05084795    -0.57725635     0.60172308     0.47935044
O      -4.11209689     4.59140887    -5.95256314     0.26540120    -0.41076576     0.32386833
O      -7.85945276     4.47106801    -9.89675997    -0.04286607     0.25050266     2.40729049
O      -8.09659076     4.57981236    -5.90646600     0.66918420    -0.57071716    -0.09209835
O      -7.88963463     8.70826174    -2.11197306    -1.29999044    -0.70332415     0.73728324
O      -8.10955536     8.73318788    -6.08184942     1.33903732    -0.18685503     0.36008793
O      -3.90278621     8.67839521    -1.99613719     0.92484262    -0.11508089     0.21848745
O      -7.70748233     0.02682811    -9.95703843     1.20704317    -0.22713455    -0.61828566
O      -2.00868849     4.14827084    -3.91319747     0.29060872     0.67711541    -0.83453698
O      -2.00944827     4.45054609    -7.69833439     1.04941901    -0.46806625    -1.08824905
O      -5.91645353     3.94466322    -4.02995594    -0.17506149     0.86755850     0.11196537
O      -5.88734447     4.28035421    -7.94723846    -0.68112320    -0.10223249    -0.05834215
O      -1.98223678     0.18207011    -3.98190025     0.17919349     0.51734738    -0.15276877
O      -2.01728213     0.02202876    -8.08013357     0.15783531    -0.81871269     0.75823958
O      -5.82941931     0.24539942    -4.01775861    -0.69723378     0.14672998    -1.75107623
O      -6.01137393     0.41572014    -8.03289270     0.37121084     0.65861957    -0.32621334
