# total energy = -631.04245008 eV

CRYSTAL
PRIMVEC
        0.00285542     0.02004370    -7.95977623
       -7.82940539     0.00763210    -3.98158109
       -3.91729101     8.74642787     0.01461334
PRIMCOORD
56 1
Li     -4.03519910     2.39400472    -2.04182935     0.10559588    -0.06665182     0.50324224
Li     -3.93387278     2.42811817    -5.88835045    -0.66394729    -0.07361869    -0.67627068
Li     -7.78797162     2.34655173   -10.10386121    -0.62388026    -0.10701014     1.02639904
Li     -7.79096349     2.05805989    -5.83600494    -0.33162495    -0.16966209    -0.90846651
Li     -3.88889969     6.75595272    -1.91493568     0.37466119    -0.17666872    -0.28187488
Li     -3.88387117     6.38625570    -5.90852648    -0.21178952    -0.11913207     0.41865108
Li     -7.91282947     6.39531599    -9.78191241     0.15525176    -0.13256921    -0.83192598
Li     -7.82966640     6.47718408    -5.92127984     0.04937203    -0.23803560     0.33105479
Ti     -2.14099005     2.28087715    -4.08640241     1.37396864    -1.53441462     0.46643487
Ti     -5.82907604     6.67997016    -7.99572048    -0.20455443    -0.45169442     0.90981914
Ti     -7.72998125     4.27284949    -7.70782958    -0.11944308     0.86471831    -0.69514737
Ti     -7.72242802     4.29224122    -3.74922549    -0.52363724     1.13017577     0.50979083
Ti     -3.76880096     4.32645365    -7.78054106     0.52629082     0.65648053     1.60223364
Ti     -3.89559583     4.53227616    -3.72627492    -0.63778349     0.32109226    -0.70022591
Ti     -2.23655463     0.05132586    -1.92699130    -0.03355527     0.70216105    -1.32970147
Ni     -5.84493118     2.39962116    -7.98446671    -0.38586063     0.53999963    -0.16318933
Ni     -5.92783759     1.99952727    -4.02185304    -0.37763656     0.00364040    -0.77203176
Ni     -9.62298355     6.65419160    -7.92239307    -1.74766397    -0.39295060     0.55620844
Ni     -9.84300294     6.45916913    -3.87615542     1.78563230    -0.45427101    -0.90821907
Ni     -1.95629861     2.15654160    -7.98989759    -0.99092433    -0.01752231    -0.05269861
Ni     -5.93862148     6.61273868    -3.98751248     0.12909349     0.35862557     0.32933535
Ni     -5.91918415     8.74041013    -5.86055700     0.06606161     0.05919609    -0.06618495
Mo     -6.09292559     0.03832424   -10.19708952     0.82377791    -0.43831553    -0.00621352
Mo     -9.66896216     8.70769747    -6.42251628    -2.74350421    -0.27229503     1.45389512
O      -2.07563095     2.02899909    -1.98957803     0.47129503    -1.08062099     0.04367483
O      -1.96529952     1.81998109    -5.97870156    -0.39117385     0.59772283    -0.27363749
O      -5.87897994     6.82899834    -1.94460925     0.11593432     0.08880580     0.09511595
O      -5.90523395     6.93372802    -5.85540429     0.16494670    -0.53906560    -0.27059688
O      -5.92279516     1.94646649   -10.17257354     0.18736269     0.39048687     1.11385054
O      -5.89624074     1.98123087    -5.83050352     0.59952931    -0.46130776    -0.92016185
O      -9.78392272     6.85525083    -9.79261332     0.37574198     0.44523340     0.17485350
O      -9.69289325     6.80022260    -6.03804264    -0.38385487     0.41561221    -0.01333084
O      -4.05720945     2.39586629    -3.98831916     0.95753684     0.32637687     0.11660358
O      -3.92988900     2.46345004    -8.00326439     0.30121715    -0.65550418     0.24947526
O      -7.94876342     2.35893438    -4.05389388     1.02180876     0.26644505     0.74478747
O      -7.85721735     2.44207810    -8.04506939     0.67292418    -0.85496778     0.59053953
O      -3.63888764     6.38870230    -3.96516641    -0.82284975     0.23773074     0.35519089
O      -3.92129511     6.28123622    -7.80845333    -0.91113907     1.33750521    -1.21523723
O      -7.82808089     6.32643440    -3.99355566    -0.80536619    -0.24857500     0.80658083
O      -7.83167649     6.35365755    -7.88737131     1.90243047    -0.05480425    -0.48065674
O      -3.91165640     4.43448426    -1.97420791     0.04954303    -0.20977425     0.02353003
O      -3.90409950     4.42322164    -5.96290141    -0.26948212    -0.57099620    -0.66400826
O      -7.86358892     4.32236889    -9.89435538     0.06128555     0.33321850    -1.52301673
O      -8.02489043     4.44759554    -6.00013460     0.41382535    -0.36477771     0.67167193
O      -7.93076454     8.75015528    -9.81359061     0.50435415     0.13000910    -0.40841037
O      -4.05989441     0.01725565    -5.96851851     1.17331269     0.24299660     0.04937843
O     -11.51942776     8.72116679    -5.96384964     0.89329605     0.15951713    -0.33236061
O      -3.91132541     8.71055073    -6.01790825    -0.01003445     0.17468906     0.14689248
O      -1.99997516     4.09795263    -4.17839116    -0.06805348     0.14476831     0.71437480
O      -9.71190255     4.53012301    -3.96501343    -0.67060718     0.52907381    -0.01564292
O      -5.88618084     4.73163581    -3.90805912     0.84271011     0.01183169    -0.63189613
O      -5.81134247     4.38334610    -8.00147190    -0.70145418    -0.19728294     0.27318892
O      -1.92719683     0.16027004    -3.94897854    -0.47772769    -0.02224557     0.81770435
O      -5.75150206     8.53220044    -7.90571289    -0.44799013    -0.41425374    -0.49248552
O      -9.75562799     8.38551805    -3.94668866    -0.09855721    -0.18566628    -0.40513520
O      -5.78694612     0.58926400    -8.15511400    -0.55706038     0.01068710    -0.15246996
