# total energy = -630.81597020 eV

CRYSTAL
PRIMVEC
        0.00279571     0.02951795    -7.98606283
       -7.83802570     0.01298533    -3.99532603
       -3.92160916     8.71933433     0.00634407
PRIMCOORD
56 1
Li     -3.91382073     2.00429958    -1.81404626     0.19870771     0.22500467    -0.41164038
Li     -4.14168116     2.14988994    -5.89950845     0.71403391     0.25889674    -0.59870734
Li     -7.82091494     2.11050644    -9.98870045    -0.18042272     0.39715564    -0.18362364
Li     -7.96772334     2.29143659    -6.00961988     0.67243150     0.17703408     0.37416582
Li     -3.97854398     6.50769432    -1.91885968     0.53002387    -0.24351181    -0.05771557
Li     -3.94834083     6.34818016    -5.94616993     0.14875884    -0.14585463     0.62934266
Li     -7.84110749     6.26092944    -9.95421109     0.19149995     0.61342387     0.12429399
Li     -7.85836434     6.43787482    -5.88586836    -0.12595390    -0.00352116    -0.22654703
Ti     -2.10208955     2.30907028    -4.15417058     1.75065171    -1.39722083     0.89067228
Ti     -5.82486265     6.64601830    -7.91853367     0.16601316     0.01511205    -0.22045749
Ti     -7.71421601     4.34797570    -7.81637882    -0.50755308    -0.19251042     0.46363131
Ti     -7.74432938     4.39747818    -3.82445881    -0.24554384    -1.45527463     0.43342477
Ti     -3.80980647     4.26490860    -7.77486480     0.60734739     1.70858992     0.88736330
Ti     -3.91983870     4.41364239    -3.69648953    -0.94790731     0.81225630     1.78374814
Ti     -5.97637472     8.69160440    -2.26701219    -0.66253172     0.03388429     0.43679701
Ni     -5.94550204     2.42010607    -8.05236877     0.67410817     0.41376901    -0.11368018
Ni     -5.81040169     2.11759394    -3.99638934    -1.77302418     0.09631559     0.90243496
Ni     -9.69700989     6.67659513    -7.89661622    -0.62301022    -0.57229423     1.02929666
Ni     -9.78618328     6.50420204    -3.98044610     0.12545622    -0.68237180    -0.33023971
Ni     -1.95997174     2.14842867    -7.88232416     0.65683944    -0.18988761    -0.58361293
Ni     -5.90967022     6.63607673    -3.95217026     0.62019939    -0.54916138    -0.19637028
Ni     -6.05081423     8.61009065    -5.99547761     0.17163606     1.27704565    -0.16083841
Mo     -5.92803480     0.08730778   -10.23086450     0.79133686    -0.38287231    -1.09828548
Mo     -9.85897503     8.73103825    -6.34264021     1.49383964    -1.13413526    -0.69556752
O      -1.90634374     1.89497237    -2.05394173    -0.53360173    -0.71655869     0.22928890
O      -2.05584841     1.77124410    -6.01140283    -0.09050805     0.13686630    -0.21123420
O      -5.89703762     6.74289442    -1.91576864     0.27615682     0.72304954    -0.16802770
O      -5.92907062     6.86155409    -5.88079309     0.18346438    -1.42127023    -0.90729526
O      -5.86657255     2.10583476   -10.11434319     0.46456132    -0.88855336     0.14520733
O      -5.92933878     1.86606116    -5.84951642    -0.39501834     0.31881222     0.12304964
O      -9.56918150     6.97577727    -9.68243575    -1.22009405     0.49695031    -0.63248102
O      -9.79779880     6.76413780    -5.97894133    -0.21156316     0.50666577    -0.62165287
O      -3.96547391     2.35081075    -3.89165259     0.26966517     0.42069654    -0.65278007
O      -3.84392725     2.43531452    -7.98211226    -0.25289980    -1.14999472     0.12807752
O      -7.79506707     2.38697745    -3.93910630    -0.45796180     0.20741093    -0.52160028
O      -7.91736542     2.37697049    -8.04961979     0.55666063     0.19533844    -0.14133644
O      -3.76100726     6.31173352    -3.94744599     0.35161476     0.28369322    -0.29182742
O      -3.85934509     6.35567366    -7.84008527    -1.27669658     0.47373243    -0.31242384
O      -7.81477784     6.30970058    -3.99654157    -0.99615961     0.94055702     0.19422920
O      -7.80900264     6.25987521    -7.96445955    -0.04512463     0.77538366     0.33667864
O      -4.05319925     4.47653017    -1.84533242     0.22681093    -0.38534153    -2.67747925
O      -4.13465558     4.28671838    -5.97494594     0.68033572     0.03811202     0.13222000
O      -7.91065917     4.42428119   -10.03365874    -0.26053659    -0.56226845     0.27243386
O      -7.88576239     4.35497163    -6.05417629    -0.17959342    -0.25419970     0.51787872
O      -3.87763980     0.04087363    -2.13282646    -0.72529691     0.55910101     0.30310607
O      -7.99419679     8.65278198    -6.04975844    -1.46569591     0.19499657    -0.21405962
O     -11.67726870     8.64035115    -6.34519341    -0.16736724    -0.06624896     0.81260570
O      -7.65712839     0.10898874   -10.07414321    -0.75838852    -0.18222642     0.55835688
O      -1.93871438     4.08077944    -3.93623848    -1.40045095     0.86011195    -0.55755030
O      -9.82311922     4.67038226    -3.99450945     0.85910719    -0.55079265     0.07792531
O      -5.86501619     4.75449748    -3.98476995     0.29246609    -0.08250484     0.00808281
O      -5.85773963     4.43747863    -7.97442311    -0.04636302    -0.67292944    -0.24124943
O      -6.04728251     8.67668082    -4.11566676     0.79673600     0.30931281     0.46047910
O      -6.03742797     8.44977273    -7.89520049     0.70971536     0.07606140    -0.14360019
O      -9.88463291     8.35880081    -4.05441708     0.44769782     0.46070249     0.16016564
O      -5.77624349     0.66202161    -8.15438571    -0.25049025    -1.04260613     0.62447605
