# total energy = -630.91374354 eV

CRYSTAL
PRIMVEC
        0.00279571     0.02951795    -7.98606283
       -7.83802570     0.01298533    -3.99532603
       -3.92160916     8.71933433     0.00634407
PRIMCOORD
56 1
Li     -4.11468479     2.30250078    -1.93053504     0.80048419     0.11403044     0.23263458
Li     -3.95763753     2.37132640    -5.90280001    -0.18177370    -0.39162569    -0.33614276
Li     -7.76167391     2.12209781   -10.09860435    -0.09197451     0.14781503     0.62781861
Li     -7.75670276     2.21113076    -5.88884159    -0.52621182     0.37608747    -0.08302143
Li     -3.94457555     6.40626220    -2.07436751     0.73733207    -0.15839436     0.33860918
Li     -3.88809425     6.68634095    -5.97766055    -0.28294874    -0.24997850     0.30432226
Li     -7.85873703     6.47191296    -9.93001686     0.22391071     0.07804577    -0.10598093
Li     -7.89343100     6.42384095    -5.80619666     0.05760758     0.37034239    -0.98510553
Ti     -1.96673965     2.42042795    -4.11600161     0.56222574    -0.94373823     0.90858220
Ti     -5.80859793     6.70398633    -8.08912658     0.56347690     0.81332363     0.44012942
Ti     -7.76597721     4.41487136    -7.71361030     1.10730272    -0.02722283    -0.26713409
Ti     -7.99586033     4.42803302    -3.71638459     1.49369722    -1.27324145     0.00486758
Ti     -3.90564679     4.31514906    -7.71433728    -0.29670309     0.21993103    -0.71217228
Ti     -4.12448345     4.36420982    -3.78983520    -0.63128315     0.68000970     1.24424016
Ti     -1.96455200     0.08363908    -2.21979715     0.02443111     0.56429922     0.02178326
Ni     -5.89641161     2.11989472    -7.83884501     0.78002433     0.07551065    -1.62344975
Ni     -5.89305889     2.19286508    -4.04961534    -0.27005014     0.51863618     0.95975319
Ni     -9.80088174     6.28567447    -7.98489680    -0.39707867     1.82667834    -0.26899947
Ni     -9.76156807     6.64727234    -3.90337804    -0.47105680     0.09732873    -1.28292120
Ni     -1.92014646     2.16328167    -8.00309389    -0.67037306    -0.85558285     0.03433817
Ni     -5.81373404     6.61908012    -4.06275598    -0.10730733     0.02512486     0.44850931
Ni     -1.99877567     0.04651284    -5.92666573    -0.61943169     0.60698742    -0.55269758
Mo     -9.81140275     8.68009296   -10.31714971     0.01639540     0.81015892     0.51158305
Mo     -5.93934491     0.05441107    -6.28702899     1.55877841    -0.40586590    -1.65933883
O      -1.93013511     1.93958258    -2.04994020    -0.66904719     0.98921812     0.39800778
O      -2.10781996     1.90051098    -5.96519478     1.03063582     0.33853878    -0.30666825
O      -5.75580172     6.87820066    -2.14689927    -0.74656115    -0.59955474     1.17473663
O      -5.89885827     6.97777141    -5.86148214     0.14964328    -0.86296769    -0.90018567
O      -5.88707046     1.88582548    -9.81330545    -0.38116887    -0.65464303     0.13382454
O      -5.83710879     2.06775998    -6.01906299    -0.45044662    -0.79662316     0.46013945
O      -9.76281839     6.75386380   -10.08010442    -0.09501198    -0.35330260     0.45965686
O      -9.85569724     6.88045234    -5.73223074    -0.20545792    -0.01862988    -0.77345405
O      -3.90892970     2.46709229    -3.88548069     0.44085370    -1.11296507    -0.94233512
O      -3.99388677     2.36035199    -7.94364448    -0.05199003     0.87942984     0.11567324
O      -7.85553741     2.35436925    -3.96751431     0.28434055     0.37238039    -0.19218720
O      -7.73609875     2.43443607    -7.92680718    -1.58810484     0.35126347    -0.60966638
O      -3.92815282     6.24026843    -4.03399332     0.44540114     0.99267827    -0.30452840
O      -3.85697609     6.52991984    -7.97594983    -0.31328958    -1.04841896     0.43406561
O      -7.67916521     6.28752397    -4.03596105    -1.05942932     0.57072986     1.14252381
O      -7.85416999     6.32367311    -7.95964954     0.12702652     0.24759160    -0.07987747
O      -3.83070978     4.47302074    -2.03510197     0.08733303    -0.24531693     0.51086672
O      -4.00009268     4.38220795    -5.95297488     0.39904226     0.00440642    -0.36820138
O      -7.82355779     4.38620362    -9.96038011    -0.28593539     0.15199790     0.49424885
O      -7.86182869     4.35258309    -5.97029884     0.34923037     0.15918417     0.18050899
O      -7.96309264     8.72203642    -9.92061539    -0.02980016    -0.08884387    -0.70688902
O      -8.04679748     8.73494923    -6.16480194    -0.28284174     0.42451868     0.12770722
O      -7.85490880     0.28345000    -6.13777714     0.91372830    -1.16470401     0.32585612
O     -11.63806673     8.72515778   -10.04586632     0.78677934     0.07979977    -0.15743455
O      -9.77500400     4.36833224    -8.02225565     0.33139108    -0.61607601    -0.26804539
O      -1.97150454     4.02301199    -7.91459134    -0.77561653     0.43540489    -0.37404106
O      -5.94614546     4.08572423    -3.78563641    -0.63908964    -0.55660171    -1.07005253
O      -5.76426903     4.77813997    -8.07623730    -0.95971085    -0.36664903     0.34202585
O      -2.04077292     0.40726649    -4.05914072    -0.05400472    -0.38251251     0.12034973
O      -5.87348718     8.59702350    -7.97284599     0.04280156     0.07636265    -0.25286319
O      -5.81106217     0.28283604    -4.19781869    -0.37220999     0.81991623     1.72632421
O      -9.90883135     8.17287087    -8.07894788    -0.01007403    -0.48492887     1.01973034
