# total energy = -630.22039411 eV

CRYSTAL
PRIMVEC
        0.00285542     0.02004370    -7.95977623
       -7.82940539     0.00763210    -3.98158109
       -3.91729101     8.74642787     0.01461334
PRIMCOORD
56 1
Li     -3.86006333     1.97524672    -2.01171869    -0.27151686     1.27978748     0.47702434
Li     -3.95708836     1.90179312    -6.04896304     0.13037769     0.75249673     0.03408174
Li     -7.73293031     2.24917702    -9.99020436    -0.57038458    -0.03334459     0.31804245
Li     -7.77892467     2.32983463    -5.84955163     0.11703117    -0.06629570    -0.27020122
Li     -3.83084567     6.51472029    -1.85084959    -0.57845865    -0.29498839    -0.38049325
Li     -3.93095970     6.65699387    -5.85256018    -0.14477338     0.03731798     0.26273101
Li     -7.89692087     6.47584473    -9.86802651     0.10516824    -0.30145532     0.02468323
Li     -8.10100649     6.25119928    -5.87103196     1.23346422     0.49081147    -0.01349004
Ti     -2.00021394     2.23867918    -4.03469662    -0.46810153     0.37628280    -0.15656338
Ti     -5.83686677     6.82713929    -7.91719733    -0.53387470    -0.58422413     0.91686660
Ti     -7.78330346     4.38087304    -7.66041114     0.15314945    -0.44057008    -2.12661027
Ti     -7.79756170     4.33575645    -3.68107683     0.63728693    -1.12410560    -0.08053656
Ti     -3.90007914     4.38636950    -7.64450909    -0.48927477    -1.56717217    -0.11863953
Ti     -3.93106762     4.48828164    -3.75049399    -0.87234407    -1.29611861     2.23416837
Ti     -5.99744099     8.73969793    -2.08500864     0.36734715     0.59163209    -1.47261249
Ni     -5.86337000     2.21138728    -8.08671546     0.05747361     1.20392566     0.67128078
Ni     -5.85613410     2.30870402    -3.97134909    -0.00754398    -0.08784308    -1.58627596
Ni     -9.87894586     6.62724483    -7.95950250     0.17845086    -0.28179589     1.74509048
Ni     -9.78154188     6.17529644    -3.99979259    -0.38610456     1.13706693     0.82972646
Ni     -1.86861869     2.30254110    -7.96694139    -1.00947117    -0.56736640     0.01996804
Ni     -6.00210398     6.57866911    -4.01607802     0.61567208     0.55198031     0.32833588
Ni     -1.96638817     0.07390931    -6.01861321    -0.43425415    -0.61496169     1.21337753
Mo     -5.90389570     0.03745323   -10.33536692    -1.16558516    -0.29568420     1.89217811
Mo     -9.80385300     8.70560441    -6.18243604     1.47636991    -0.08176810    -1.62051972
O      -1.79643610     1.87120804    -1.94229899    -0.74926592     0.28414618    -0.13632117
O      -1.98125079     1.89796931    -5.97272076    -0.04074000     0.05583201    -0.57007454
O      -5.94146214     6.86179799    -1.95470731     0.17282361    -1.45397558     0.01036718
O      -5.96703801     6.95536546    -5.92061860     0.30484628    -0.48545678    -0.55073524
O      -5.83657737     2.07840981   -10.04394168     0.02019144    -0.96883879     0.92619796
O      -5.87379203     2.02995610    -6.05961870    -0.22302819    -1.24159884     0.28223790
O      -9.78699074     6.94573634    -9.78806892     0.21486255     0.66589038    -0.82126780
O      -9.81870173     6.76380986    -5.81907340     0.09057711     0.44278824    -0.97537922
O      -3.97075340     2.40716708    -3.96811050     0.93638496     0.15281945     0.05327936
O      -3.94357027     2.42672879    -8.02964145     0.91127596     0.14880817     0.29632913
O      -7.77045438     2.33339210    -3.94519640    -0.35842447     0.35068327    -0.08978721
O      -7.98489777     2.36378094    -8.04831658     1.72648240     0.58587631     0.67904106
O      -4.04005774     6.35597213    -3.96971593     0.46332073     1.01673097    -0.26446083
O      -3.89539898     6.43905830    -7.71526213    -0.77802072    -0.61932641    -1.34490000
O      -7.91054399     6.21760579    -3.87631684     0.30494807     1.28764128    -0.63136237
O      -7.81844355     6.33336699    -7.92533119     0.10016831    -0.22713088     0.17814342
O      -3.94347412     4.48949404    -1.92120613     0.03223247     0.37634378    -1.47986026
O      -3.67884797     4.29695232    -5.89547598    -0.21693157     0.56327730    -0.47883819
O      -7.86492967     4.28420139    -9.89880493    -0.13219896     0.33849999     0.69010534
O      -7.86364776     4.34465555    -5.94980035     0.03704679    -0.07036654     1.06475448
O      -4.00122985     0.16288226    -2.15545173    -0.29618249    -1.22417083     0.33841632
O      -7.87525786     8.74167966    -5.93410223    -1.50531550    -0.25529324    -0.64405710
O     -11.59625682     8.57008020    -6.12727246    -0.31619105     0.48900628     0.64158016
O      -7.70907082     0.11026786    -9.94104081     1.00375623    -0.25968741    -1.04059641
O      -2.01983882     4.22204265    -3.75716590     0.91176683    -0.89223735    -0.95418061
O      -9.73584006     4.29126567    -4.05887732    -0.66872857    -0.70655319    -0.08875530
O      -5.91801691     4.19985353    -4.11939379     0.81525722     0.30331180     0.42015152
O      -5.84102447     4.18476644    -7.92533702    -0.46595630     0.59027597     0.15620345
O      -1.95787003     0.16289431    -3.94938993    -0.12439088     0.78974610    -0.02381398
O      -5.91162759     8.60875924    -8.05694263     0.27547223     0.52559868     0.70641697
O      -5.81092841     0.33589947    -4.14685761    -0.66626832     0.36092251     0.16214535
O      -5.82077876     0.40750461    -8.04835365     0.16493908    -0.14542319     0.17993969
