# total energy = -630.33355280 eV

CRYSTAL
PRIMVEC
        0.00285542     0.02004370    -7.95977623
       -7.82940539     0.00763210    -3.98158109
       -3.91729101     8.74642787     0.01461334
PRIMCOORD
56 1
Li     -3.86296060     2.47892626    -1.85476539    -0.03433150    -0.38542988    -0.22385405
Li     -4.01768140     2.27610361    -6.09326124     0.02789606    -0.22557908     0.92118706
Li     -7.69481622     2.32761630    -9.80289451    -0.69197027     0.02196781    -0.23850592
Li     -7.84828621     1.98028379    -5.79925136     0.39815510     0.33354262    -0.27870700
Li     -3.77917803     6.53186703    -2.05903254    -0.93594301    -0.07529707     0.53999707
Li     -3.96127243     6.60371827    -5.80702090     0.04460324     0.07385429    -0.26812871
Li     -7.94772339     6.42607406    -9.81657099     0.55887572     0.25802482    -0.38587264
Li     -7.94931342     6.43069871    -5.92509150     0.65339230     0.06201393     0.39916674
Ti     -1.98191138     2.28867150    -3.97576006     0.35458318    -1.82909884    -0.28688776
Ti     -5.81393532     6.79125108    -7.90070235    -0.58025542    -0.14037479    -0.99746530
Ti     -7.75606833     4.46634789    -7.73792916     0.82501751    -0.77896877     0.71752962
Ti     -7.89429540     4.33244138    -3.71965447     1.44904398    -0.74553312     0.22086812
Ti     -3.82657990     4.41917864    -7.70655370    -0.29892188     0.61505779    -0.29723166
Ti     -4.00353565     4.44488929    -3.79103867    -0.50918459    -1.03591777     0.78292989
Ti     -5.94508300     8.67137769    -2.14467918    -0.88296380    -0.94100746    -0.95419207
Ni     -5.79427512     2.45789919    -8.04987091    -0.75484565     0.48179126     0.90779894
Ni     -5.86251643     2.01211185    -3.93010264     0.03655945     0.11315109    -1.25625708
Ni     -9.77461308     6.59802700    -7.86188273    -0.15260133     0.22600695    -0.05507252
Ni     -9.81750575     6.44599613    -3.87921349     0.06209834     0.46501704    -0.55550852
Ni     -1.91141835     1.96608413    -7.95802851     0.23213020     0.19365290     0.91037746
Ni     -5.99907102     6.49032350    -4.06653880     0.56841538     1.89848958     1.01685312
Ni     -2.00341406     0.05240308    -5.97033291     0.14342667    -0.19796029    -0.01677864
Mo     -5.96328770     0.06141043   -10.22674247     0.48258212    -0.28551068    -0.26074864
Mo     -9.74388301     8.70678328    -6.34393732    -0.00696811     1.66917809     0.55858148
O      -1.96603547     1.85505370    -1.89054964     0.39530260     0.61762440    -0.88251342
O      -1.86589955     1.87370101    -6.00634056    -0.56743877     0.24879353     0.47892793
O      -5.83845408     6.74274547    -2.00383676    -0.30011445     0.62585752     0.15817051
O      -5.90819936     6.97273005    -6.00253064    -0.33023000    -0.63958984     0.83807634
O      -5.84810751     1.98474653   -10.05344903     0.29941707     0.08852326     0.38550313
O      -5.93607777     1.91296014    -5.89601495     0.84423162    -0.15478856     1.53104227
O      -9.76870577     6.93863376    -9.68656031    -0.43242631    -0.44320925    -0.13589111
O      -9.76162970     6.85889492    -5.99150074    -0.03704020    -1.58537874     0.04512105
O      -3.85158531     2.37464159    -3.89117138    -0.77555134     0.22998731    -0.63342610
O      -3.92154302     2.53065502    -7.88910872     0.92159798    -0.70897105    -1.05977388
O      -7.74659933     2.24146197    -3.81188917    -0.45127032     1.38924883    -0.77437823
O      -7.71219239     2.50489774    -7.79705208    -0.47514594    -0.28989648    -1.33251897
O      -3.95690448     6.28932741    -3.95543427     1.27034630     1.46661187    -0.33424194
O      -3.98812627     6.40793449    -7.83279666     1.46954594    -0.09012026    -0.34866773
O      -7.86975560     6.31823443    -3.95196313    -0.56983580    -0.17692565     0.06319159
O      -7.78453313     6.49970503    -7.85841101    -0.82195856    -1.17037532    -0.42569111
O      -3.94138153     4.43953851    -2.00961246     0.58999475    -0.22459696    -0.55953548
O      -4.20784043     4.39570390    -5.99573208     0.63285845    -0.10121311     0.94788614
O      -8.00359946     4.44242748    -9.90961344     0.41995102    -0.28788767     0.22751899
O      -7.83707026     4.38830843    -5.96617697    -0.18423002     0.58226640    -0.41839098
O      -7.88430473     8.74305215    -2.03611247    -1.73105582    -0.01702971    -0.17838847
O      -3.98300560     0.06618788    -6.23727833    -0.00877076    -0.16106964     0.93538238
O     -11.60381567     8.71874289    -6.09324988    -0.18885016    -0.21899939    -0.38156016
O      -3.91371104     8.71513598    -5.95993511     1.69336585     0.49288845     0.04078446
O      -1.90877426     4.07042317    -4.02031316    -0.72398774     1.52941636    -0.04488370
O      -9.73909565     4.57084049   -11.86155870    -1.69728083     0.45586883    -0.55810019
O      -5.93411679     4.70072405    -3.94557222    -0.28167384    -1.15370597    -0.15347424
O      -5.78760737     4.46844944    -8.25860501    -1.35739593    -0.63962299     1.17675115
O      -2.16289501     0.06235787    -4.01114361     0.80512330     0.50281025    -0.11629455
O      -5.84971394     8.59840990    -8.16747832     0.34695388     0.05089862     1.29728489
O      -9.93848405     8.33923826    -4.05458634     0.74662945     0.06057607     0.90142879
O      -5.75740749     0.59939071    -8.03607514    -0.72544159     0.29607433    -1.72360131
