# total energy = -630.98226525 eV

CRYSTAL
PRIMVEC
        0.00279571     0.02951795    -7.98606283
       -7.83802570     0.01298533    -3.99532603
       -3.92160916     8.71933433     0.00634407
PRIMCOORD
56 1
Li     -3.98622787     2.09030009    -1.75418889     0.09181309     0.36559588    -0.71846422
Li     -3.88811799     2.19224511    -5.89322093    -0.63202443     0.34642444    -0.30011679
Li     -7.92083988     2.27281342    -9.94356350     0.52727369     0.21776872    -0.36754162
Li     -7.69302886     2.23167111    -5.98474056    -0.41116836    -0.03575438     0.10837015
Li     -3.96665322     6.54795998    -2.07004080     0.28198164     0.00926933     0.35920017
Li     -3.74333125     6.46555324    -5.87061426    -0.81985896    -0.05714258    -0.52059204
Li     -7.82031849     6.50426604   -10.16261695    -0.13696048    -0.10485012     0.57417976
Li     -7.80850635     6.41435383    -5.90881519    -0.22977134    -0.05021697    -0.26547685
Ti     -1.98224198     2.14342008    -4.06424879    -0.34301837     0.96174077     0.52172711
Ti     -5.92849803     6.64717841    -7.97503418     1.31777920     0.42314052    -0.30013428
Ti     -7.79434937     4.37752818    -7.88356811    -1.27482621    -0.07558116     0.23270374
Ti     -7.88837606     4.30705942    -3.85639852     1.15213661    -0.06518052     1.24853677
Ti     -3.86680348     4.44072988    -7.73261198     0.85390801    -0.09192675     0.26617699
Ti     -3.93472154     4.42773634    -3.71335922    -0.36718674    -1.41220427     0.15365109
Ti     -2.16307130     0.03414090    -2.03268222    -0.48497092    -0.04026924     0.08492889
Ni     -5.81277108     2.47211976    -7.93235560    -1.16079735    -0.17588327    -0.19714000
Ni     -5.97332418     2.23341060    -4.05849645     1.73915775    -0.09535356     0.88305213
Ni     -9.77147668     6.47953824    -7.89550824     0.08304246     0.43158742    -0.04691481
Ni     -9.86559203     6.45970260    -4.02704190     1.03126782     0.25997209    -0.11804609
Ni     -1.96405578     1.98930076    -7.96104059     0.27633359     0.60359455    -0.41163187
Ni     -5.89360990     6.50466814    -4.10550128     0.53544319    -0.02087800     0.56338798
Ni     -5.98981522     8.74005831    -5.92361678     1.18381748     0.50068835    -0.46689318
Mo     -6.03186518     0.05923763   -10.15221592    -0.29821847     0.23896098    -0.54224103
Mo     -9.67795985     8.64686555    -6.37374699    -1.44787612    -0.24291416     0.72492887
O      -1.81917679     1.91620870    -1.91067851    -0.92574328    -0.28879705    -0.08259799
O      -2.06505163     1.90629130    -6.09589317     0.77612598    -0.48056023     1.56686698
O      -5.82917231     6.82346864    -2.06799221    -0.45706968     0.15279919     0.09088292
O      -5.89492978     6.94921904    -6.00230146    -0.24490270    -1.20842115     0.65431400
O      -5.87938446     2.07208354   -10.08804321    -0.64887989    -0.98159190     0.05233269
O      -5.78122710     2.04814787    -5.87441813    -0.16126409    -0.87326522    -0.95173439
O      -9.78525504     6.88649456    -9.75086359     0.59859176     1.04045952    -0.38847495
O      -9.82220810     6.68772310    -5.99541483     0.79974474     0.99237393    -0.51613462
O      -3.96997025     2.39967628    -3.92593916     1.16144081    -0.09996659    -0.19446052
O      -3.96813918     2.49246822    -7.87225119     0.81965771    -0.14897038    -0.53348776
O      -7.86173568     2.34497287    -4.02169564    -0.36184410     0.15968590     0.18707826
O      -7.84564778     2.42108024    -7.90299785     0.22664097     0.03155834    -1.34968925
O      -3.83770438     6.30251555    -4.06487597    -0.58459840     0.90582568     0.98333774
O      -3.93363503     6.44877208    -7.90427055    -0.42002288    -0.09833107    -0.39737685
O      -7.84337027     6.29756571    -4.06732373     0.15449513    -0.12583243     0.25754714
O      -7.84080111     6.43892737    -8.03669418    -0.07350415    -0.87693859     0.39260113
O      -3.99831136     4.55265572    -1.95389460     0.56756539    -0.19431750    -0.28958028
O      -3.76104071     4.53876616    -5.99239563    -0.36477806    -0.31828463    -0.22497494
O      -7.76610127     4.31323704   -10.03027209    -0.05180591     0.19926922    -0.47307682
O      -7.86207553     4.28585321    -6.13614829     0.26624274     0.74492014     0.62288398
O      -4.01505688     0.09980758    -2.07202663     0.85642975    -0.27495512     0.50727294
O      -7.85691813     8.70988408    -6.00644173    -1.30422001    -0.12661169    -0.20454799
O      -7.49921391     0.04119926    -5.95212979     0.04086682    -0.29243357    -0.33507328
O      -7.81441803     0.03814060   -10.05046967     0.09610094     0.19705192     0.20775144
O      -1.98010954     4.13066425    -4.10436454     0.33529766    -0.23546702     0.33759690
O      -9.72016747     4.55576522    -3.99199998    -1.66083390     0.28175077    -0.59144851
O      -5.83573266     4.20540291    -4.15363911    -0.81116374     0.21539021     0.08208196
O      -5.81416096     4.55663132    -7.99082622    -0.76907907    -0.43114646     0.13533368
O      -1.86217457     0.24636081    -3.93153810    -0.25088471    -0.04823531    -0.01392975
O      -5.96327751     8.52822144    -8.00578614     0.08251955    -0.06465516    -0.87237685
O      -9.78798505     8.71395786    -3.95389959     0.04469231    -0.02895770     0.04697947
O      -5.95616780     0.64144577    -8.09076208     0.92472780    -0.26731080    -0.11892878
