# total energy = -630.44191088 eV

CRYSTAL
PRIMVEC
        0.00285542     0.02004370    -7.95977623
       -7.82940539     0.00763210    -3.98158109
       -3.91729101     8.74642787     0.01461334
PRIMCOORD
56 1
Li     -3.96457457     2.46139297    -1.91320208     0.30291093    -0.42571804    -0.08510945
Li     -3.91439404     2.21498107    -6.07617159    -0.18527320    -0.07207542     0.38046213
Li     -7.92079387     2.14137466   -10.05698672     0.42112297     0.27990581     0.27245564
Li     -7.86241668     2.38464089    -5.83591693     0.52532753    -0.01801373    -0.35968719
Li     -3.89633248     6.52207166    -2.00405216    -0.26901289    -0.24331861    -0.03569307
Li     -4.11981802     6.41194124    -5.88626185     0.69595007    -0.08840366     0.21963016
Li     -7.90465234     6.58814960    -9.85445346    -0.00716630     0.37940824    -0.12578640
Li     -7.78838565     6.61088178    -5.70806839    -0.53279421    -0.35044069    -1.24713297
Ti     -1.92229756     2.24815602    -4.11641978    -0.43490905    -0.00543736    -0.12079903
Ti     -5.85201014     6.72948967    -8.03645881    -2.36860156    -1.00440578    -0.19597332
Ti     -7.78501533     4.33994754    -7.70994994    -0.04774798     0.98198124    -0.37092142
Ti     -7.78441584     4.50588195    -3.55077021    -0.31459240    -0.85425892    -0.06715696
Ti     -3.91037355     4.37750705    -7.71182925     0.78514882    -2.14267964     0.67468172
Ti     -3.91684467     4.36089957    -3.79385561    -0.97009918     0.85899667     0.53258954
Ti     -2.08841556     0.04677280    -2.17192218    -1.39317939     0.56048785     0.20528826
Ni     -5.79755790     2.26609184    -7.92322996    -0.60458271    -0.09888024    -0.42803441
Ni     -5.85407246     2.29239613    -3.99865829    -1.11948742    -0.48537230    -0.42742138
Ni     -9.81340087     6.58717047    -7.82331582     0.81242113    -0.06401547    -1.00404237
Ni     -9.85791598     6.45188805    -3.92404707     0.75542210    -0.21289166    -0.48994634
Ni     -1.87243604     2.11894674    -8.02511164    -1.09122736     0.52460922     0.93929293
Ni     -5.82084893     6.61686306    -3.95742012    -0.40159760    -0.16249922     0.46877639
Ni     -5.97930393     8.71212844    -5.91368972    -0.14186742     0.24918837    -0.17804929
Mo     -6.10485427     0.08684037   -10.30123858     2.21404820     0.28152957     0.94303085
Mo     -9.75187409     8.62754707    -6.31754342    -0.56089547    -0.12952411    -0.41942730
O      -1.87702399     1.95432023    -1.91555310    -0.18007499    -0.11507364    -0.86554583
O      -2.01684985     1.81757378    -6.09958707     0.30507941     0.40795577     0.68034394
O      -5.81755225     6.87711148    -2.04430278     0.25889061    -0.85497266     0.13962225
O      -5.97035788     6.86231927    -5.77975945     0.93215878     0.23908675    -0.54277710
O      -5.85557356     2.00836329   -10.00491789    -0.29684271    -0.73234725    -0.41402204
O      -5.83701468     1.94394284    -5.93108291    -0.16723651    -0.33563231     0.06905790
O      -9.88611529     6.94119221    -9.84232025     0.44036617     0.44422309     0.38391834
O      -9.89716121     6.64403916    -5.97072776     1.37371158     1.23109076     0.47654889
O      -4.00470379     2.41446809    -4.02432149     1.65130689    -0.27737598     0.56302247
O      -3.86782584     2.41745321    -7.97177550     0.23266002     0.04096508    -0.44482425
O      -7.86433724     2.46573477    -3.99435280     0.81980025     0.49140226     0.80800207
O      -7.79677944     2.39112218    -7.96703590    -0.58942019    -0.03390849    -0.17592225
O      -3.79926668     6.37594193    -3.98746123    -1.32708355    -0.47322015    -0.15050166
O      -4.07144571     6.25970154    -7.89788620     1.98493441     0.82208731     0.23771384
O      -7.85145182     6.39279190    -3.97392047     0.17889610    -0.37982495     1.67983259
O      -7.70850647     6.44151940    -7.95346076    -1.25697640    -0.58492770     0.68232173
O      -3.85847509     4.46508178    -2.02115962     0.16748639    -0.50030011     0.02521682
O      -3.79316155     4.18251388    -5.95874276    -0.69461344     1.21348973    -0.09183074
O      -7.67858033     4.59773919    -9.72362999    -0.72967477    -0.06885417    -1.92092777
O      -8.05087743     4.52983715    -6.01549679     0.48637590    -0.13650558     0.92484573
O      -3.89688930     0.04264100    -2.04529748     0.01425761    -0.14997768    -0.22837071
O      -7.97527610     8.68617407    -5.93682452     0.58938945    -0.18454078    -0.21393409
O     -11.52262932     8.69837989    -6.10287589    -1.23320336     0.04875108     0.56521274
O      -7.81975520     0.16288194   -10.06181031    -0.26848060    -0.28334367    -0.12559702
O      -1.98426054     4.11290863    -4.05459091     0.56560987     0.15669363    -0.13972958
O      -9.71885832     4.45510048   -11.72251976    -0.40677150     0.96234534    -0.86080728
O      -5.89933625     4.22343400    -3.89726073     0.45826187     0.39323045    -0.75023968
O      -5.88005611     4.18409139    -7.89054502     1.11241300     0.18262907     0.19964246
O      -1.92372442     0.37073516    -4.03802946    -0.04584036    -1.18389694     0.22627539
O      -5.80410417     8.45013976    -7.88917045     0.07646504     2.19573022    -0.30182580
O      -9.74378020     8.47035423    -4.08141495    -0.66772631    -0.30189567     0.83830243
O      -5.82900058     0.41034856    -8.11229925     0.20530422     0.37120198    -0.37346682
