# total energy = -630.81287008 eV

CRYSTAL
PRIMVEC
        0.00285542     0.02004370    -7.95977623
       -7.82940539     0.00763210    -3.98158109
       -3.91729101     8.74642787     0.01461334
PRIMCOORD
56 1
Li     -3.82673751     2.26552277    -1.83227412    -0.60201940     0.34929737    -0.20708557
Li     -3.91102712     2.14160006    -5.98483693    -0.03347527     0.01496408     0.11187132
Li     -7.98415833     2.13904055    -9.76009053     1.03654777     0.20640274    -0.57598713
Li     -7.72659130     2.22118593    -5.88428678     0.21459616    -0.02660564    -0.24113715
Li     -3.78959029     6.48762743    -2.04408568    -0.43521258     0.03611991     0.50828683
Li     -4.07139194     6.61058128    -5.86893670     0.27471562    -0.33165116    -0.32146082
Li     -7.84315462     6.53005829    -9.90770948    -0.08096534    -0.07715228    -0.02355456
Li     -7.93651261     6.41160092    -5.89068253     1.05925359    -0.06798855     0.20130665
Ti     -1.96409296     2.25638927    -3.84480308    -1.07886171    -0.76168958    -0.99233940
Ti     -5.92039696     6.66764599    -7.98251448     0.78629656    -0.33388665     1.40344843
Ti     -7.87931853     4.37651164    -7.74325563     0.87186542     0.76502303     1.23649637
Ti     -7.89994628     4.32363727    -3.70539199     1.50125069    -0.93413576    -0.80691934
Ti     -3.76403709     4.47142117    -7.77254199    -1.24123237    -0.62527348     1.25564675
Ti     -4.07403859     4.49242568    -3.81565619     0.61058141    -0.57717506     0.61623666
Ti     -6.05235005     8.75072212    -2.09374087    -0.05410878    -1.21123373     0.71596912
Ni     -5.76309565     2.52413008    -7.94435528     0.04498402    -0.86950526    -0.07576015
Ni     -5.84373826     2.05963505    -3.99887959     0.12422541     0.47109351    -0.68640979
Ni     -9.78545327     6.63693031    -7.86386166     0.12586307     0.04042480    -0.74876467
Ni     -9.77816948     6.50070225    -3.96687926     0.23891434     0.68207781    -0.20978941
Ni     -1.83886952     2.04836824    -7.92605486    -0.14108372     0.04948462     0.20115010
Ni     -5.98719270     6.63721641    -3.91379361     0.98772468    -0.60362512    -0.70525306
Ni     -5.97304840     8.73398682    -5.94606783    -0.21498553    -0.83146872    -0.16861674
Mo     -9.93882981     8.71433956   -10.28546839     1.44875708     1.15517746     1.86416953
Mo     -9.78765233     8.66148377    -6.34845096    -0.93191283     1.30927350    -0.35686164
O      -1.92851646     1.97135301    -1.92341244     0.10456494    -0.44507660    -0.45251698
O      -1.96361622     1.75856067    -6.02472871     0.21610251     1.43864187     0.38966695
O      -5.76382172     6.78533286    -1.87485300    -0.83348132     0.36093469    -2.08763162
O      -5.97176053     6.93028379    -5.90554981    -0.02185310    -0.44525876     0.31272492
O      -5.71605770     1.85407024   -10.10222809    -1.02726055     0.06204805     0.22912119
O      -5.81346119     1.92275955    -5.87724374    -0.16017868    -0.02878354     0.45175047
O      -9.70752764     6.93927004    -9.68336091    -0.42313084    -0.31647025    -0.44446640
O      -9.69990006     6.74210458    -6.04520272    -1.28077749     0.00210974     0.62298119
O      -4.00528237     2.42734596    -3.95383641     1.78140527     0.05394615    -0.27869643
O      -3.77661370     2.46581611    -7.88182744    -0.24685941     0.82692872    -0.30722592
O      -7.71669470     2.31009102    -4.05914069    -0.90481291     0.74689975     1.35639235
O      -7.71246907     2.46196850    -7.81615587    -1.11371707    -0.38851546    -0.98424309
O      -3.84434850     6.48217992    -4.04546011    -0.11657233    -0.78891332     1.25712931
O      -3.89011896     6.40651232    -7.95094392    -0.19007224     0.32156136    -0.09631463
O      -7.87950799     6.29249994    -3.94727304     0.32132276     0.43566819     0.40833602
O      -7.84167881     6.39371145    -7.86552631    -0.28534470    -0.40187704    -0.80470837
O      -3.79499528     4.38108945    -2.03131252    -0.12654878     0.46501468    -0.65941256
O      -4.01486536     4.61024738    -6.00971031     0.72906734    -0.68114166    -0.08834092
O      -7.82106058     4.32275943    -9.92287333     0.01717354    -0.07925385     0.94992880
O      -7.79923801     4.40441858    -5.96093331    -0.28910548    -0.09585369    -1.04731818
O      -7.87155295     8.63293695    -2.15244699     0.78182302     0.35585480     0.49633940
O      -8.01907556     8.73515050    -6.08333312     1.36495615    -0.11749230     0.70462565
O     -11.60493660     8.73973225    -5.93335663     0.46877734    -0.15261492    -0.69985712
O     -11.65599378     8.68220670    -9.98080799    -0.93877422     0.49508805     0.02220442
O      -1.99518879     4.06072012    -4.10353113     0.53629379     0.44737761     0.07073497
O      -9.70179906     4.67301069    -3.96418239    -1.26046088    -0.46411144    -0.22308321
O      -5.88976939     4.54774819    -3.95523906    -1.00378030     0.54377365    -0.08731267
O      -5.83119178     4.50050568    -8.01365980    -0.27254899    -0.55708600    -0.12556072
O      -1.94855348     0.17540731    -3.97344647     0.09876443     0.47739167    -0.09008954
O      -5.93258570     8.51201745    -8.00494490     0.02432709     0.31407052     0.27631657
O      -9.82680494     8.45798080    -4.08112638     0.21394169    -0.74399200    -0.59466784
O      -5.77340501     0.58265203    -8.06180428    -0.52457330     0.56195868    -0.53208092
