# total energy = -630.97671386 eV

CRYSTAL
PRIMVEC
        0.00279571     0.02951795    -7.98606283
       -7.83802570     0.01298533    -3.99532603
       -3.92160916     8.71933433     0.00634407
PRIMCOORD
56 1
Li     -4.02570662     1.99536227    -1.82276371     0.20250980     0.18509829    -0.20047762
Li     -3.97014733     2.22953727    -5.90739993    -0.04206981     0.37498635    -0.11629732
Li     -7.77951873     2.36261040    -9.94925102     0.05005578    -0.29706484    -0.06368051
Li     -8.01316775     2.31286325    -5.92164216     0.57287801     0.07385090    -0.03111571
Li     -3.87086937     6.57840756    -2.03044718    -0.67352649    -0.13277142     0.32258940
Li     -3.94179987     6.66549269    -5.74916916     0.14676340    -0.29497529    -0.44817654
Li     -7.82716593     6.46361700   -10.13762009    -0.22963074     0.06908089     0.88115447
Li     -8.11036881     6.56577938    -5.90897699     1.04801578    -0.18353552    -0.27383965
Ti     -1.97255382     2.30203814    -4.07425640    -0.62116456     0.81075045     1.11788279
Ti     -5.85753367     6.60458929    -7.89426665    -0.49944277     1.57725758    -0.36622065
Ti     -7.74244630     4.39901389    -7.79800457    -0.13273007     0.77576676     0.06405169
Ti     -7.77947414     4.27529408    -3.81707154     0.18920667     0.43503154    -0.42560054
Ti     -3.75148128     4.49944077    -7.75564215    -0.72611057    -1.07092686     0.47964088
Ti     -4.00423056     4.38080405    -3.65922072    -0.32416692    -0.40455284    -0.45822783
Ti     -1.83357486     0.05803073    -2.11285334     0.17781767    -0.93204762     0.54553348
Ni     -5.83013138     2.08570695    -7.89310346    -0.56398483     0.74499107     0.27207150
Ni     -5.94044091     2.19449267    -3.98664575     0.46190674     0.12503966    -0.03708566
Ni     -9.89214930     6.32410426    -7.91298497     0.73242785     0.47028587    -1.22839769
Ni     -9.79135065     6.54687165    -3.99108504     0.00754788     0.28061214    -0.06483911
Ni     -2.07493006     2.17736462    -7.97963319     0.62769669    -0.10642331     0.19067918
Ni     -5.96410694     6.72686251    -3.98058721     0.56842130    -0.78644272    -0.02004896
Ni     -1.98734540     0.10782286    -5.91957924     0.23950079    -1.90705390    -0.95615195
Mo     -9.80561946     8.65082294   -10.34435625     0.02965470    -0.17411449    -0.15323738
Mo     -5.83797755     0.11253085    -6.40541808     0.81329879    -0.27313340     1.53705114
O      -2.10890316     1.95265360    -2.02997619     0.62865483    -0.13391632     0.62582003
O      -1.99020876     1.92669340    -5.88667464     0.11709047     0.34892367    -1.72442689
O      -5.92236670     6.82045181    -1.96194587     0.10694256     0.93929365    -0.45483396
O      -5.88462100     6.91420144    -5.88972983    -0.18947271     0.90886938    -0.09814574
O      -5.87612419     1.89626415    -9.73074155    -0.18238876    -0.67264937    -0.72768316
O      -5.95715294     1.97099614    -5.96018748     0.37889105     0.08480933    -1.33242423
O      -9.83733157     6.69389482   -10.12408924     0.41275713     0.68907159     0.29676201
O      -9.91803256     6.94061402    -5.82807284     0.81300397    -0.61124523    -0.23803952
O      -3.95116578     2.41580083    -3.92868088     0.54053020     0.02735403    -0.21614204
O      -4.00250038     2.44168635    -7.84019385     0.13134839     0.14641027    -0.61216721
O      -7.86863091     2.30245115    -3.99755011    -0.38319360     0.76050432     0.33136388
O      -7.82067629     2.45493881    -7.95653374    -0.42162927    -0.63516283    -0.39404712
O      -4.04057620     6.25801233    -3.91662651     0.12921390     1.38910732    -0.50093776
O      -3.88811342     6.44307480    -8.04270138    -0.30278628     0.23318443     0.87587700
O      -7.78508433     6.32449099    -4.05173759    -0.95642438    -0.37064198     0.07740890
O      -7.85576493     6.34256476    -7.98270806    -0.42213772    -0.03477407     0.28997863
O      -4.04516851     4.57491313    -1.93649073     0.25277628    -0.74273911     0.66017950
O      -3.70184436     4.47177613    -6.01007458    -0.84539005     0.02987325    -0.22408224
O      -7.87700814     4.41948749   -10.04673555     0.29520505    -0.40656739     0.19557124
O      -7.83003921     4.28681450    -6.06794400    -0.58369272     0.29915373     1.05361063
O      -7.97203188     8.65962236   -10.03943495    -0.13292071     0.29602110    -0.14355614
O      -7.96896467     8.73664534    -6.19439465    -0.72627204     0.48080618     0.54697658
O      -7.76910114     0.05147859    -6.12132598    -1.78267878     0.39668251    -0.11150104
O     -11.60384449     8.66356361   -10.12090902    -0.34059855     0.32633852     0.74883261
O      -2.00305117     4.44144093    -4.10515913     0.15998274    -1.35955969     1.00053426
O      -1.92849695     4.22565848    -0.12361278     0.70792693    -0.61814607    -0.19588042
O      -5.83367749     4.04093134    -4.11812476    -1.40125283     0.34258097     0.30664458
O      -5.88555069     4.74472458    -7.84967629     1.18942729    -0.32619463    -0.41394143
O      -2.08038365     0.41310738    -4.03382468     0.50806576    -1.12185477     0.65809124
O      -5.94631569     8.69743823    -7.90327035     0.24775776    -0.22032004    -0.72421763
O      -5.92367872     0.37477085    -4.16838951     0.36246900    -0.47888525     0.85672507
O      -9.84521906     8.16823872    -8.07915335    -0.39753572    -0.34086148    -0.81636066
