# total energy = -631.19502012 eV

CRYSTAL
PRIMVEC
        0.00279571     0.02951795    -7.98606283
       -7.83802570     0.01298533    -3.99532603
       -3.92160916     8.71933433     0.00634407
PRIMCOORD
56 1
Li     -4.13904583     2.25351829    -1.91868598     0.22367224     0.16578881    -0.37286043
Li     -3.91912947     2.02143518    -6.00793736     0.38063548     0.52696865     0.04996796
Li     -7.91800252     2.59044072    -9.93906606    -0.02268927    -0.70344957    -0.16234549
Li     -7.73097890     2.42215884    -5.93764430    -0.13741659    -0.59346683     0.61265388
Li     -3.99682789     6.88718886    -1.90413368     0.49044819    -0.20318547    -0.63505118
Li     -4.00859840     6.48540030    -5.88026386    -0.01399881    -0.28603213    -0.13096490
Li     -7.97084407     6.46464178   -10.02690217     0.46565628     0.15989466     0.77827757
Li     -7.84615915     6.46345731    -5.90469605    -0.12667908     0.17372985    -0.04169795
Ti     -1.98391674     2.15235249    -3.88461869     0.09585553     0.60634080    -1.27973034
Ti     -5.84595117     6.51924877    -8.04625555    -0.00115453     0.47264655     0.25145356
Ti     -7.71306324     4.31408848    -7.66208513    -0.66930321     1.23466995    -1.29584472
Ti     -7.77617663     4.48281486    -3.70497715     0.18095433    -1.93860085    -0.70332158
Ti     -3.71845740     4.32106198    -7.81082790    -1.02690823     1.06021280     1.33312232
Ti     -4.00467125     4.39777409    -3.77261161     0.77340631     0.20750383    -0.60684674
Ti     -2.25630787     0.20377462    -1.84599597     0.00888942    -1.32644597    -0.33899989
Ni     -5.89041181     2.23748408    -8.00743063     0.65557479    -0.43789457     0.87885553
Ni     -5.86805172     2.23926638    -4.01463960    -0.22569080    -0.09775547    -0.56610183
Ni     -9.71330446     6.36165344    -7.98931489    -0.66836843    -0.28527692    -0.07427543
Ni     -9.77656893     6.54795270    -3.98798207    -0.71902619     0.49040056    -1.13213699
Ni     -1.95804441     2.35424776    -7.98948771     0.24323350    -0.79423274     0.41674509
Ni     -5.96537595     6.64069847    -3.97013331     1.02779670     0.52414094    -0.14509438
Ni     -5.92393885     8.69362285    -6.07852385     0.00948302     0.58153300     0.50707044
Mo     -9.99207885     8.64277000   -10.26919902    -1.11888433     0.55167297    -0.34311378
Mo     -5.82807111     0.06175772    -6.39553733     0.06153309     0.63705165     0.80703214
O      -1.86808894     2.12631548    -2.00243242    -0.54123157    -0.69016490     0.95774093
O      -1.97230066     1.81765101    -6.14900460     0.13302669     0.34128335     0.22398418
O      -5.99661648     6.92988992    -2.03574214     0.93319490     0.05694065     0.00603254
O      -5.93613457     6.81127471    -5.95422548     0.01412301     0.38418433     0.00329055
O      -5.99849861     1.78819043    -9.83756946     0.34631271     0.69712438     0.23536012
O      -5.82178705     2.01752415    -6.09009037     0.13409264    -0.25180067     0.03611825
O      -9.87749232     6.70645867   -10.12593834     0.58729111     0.61344530     0.99793263
O      -9.81501974     6.79997067    -5.91378851     0.38630227     0.47560186     0.10860285
O      -3.83840225     2.32262133    -3.99057466    -0.87707779     0.66093013     0.00770513
O      -3.92530644     2.43150803    -8.03404113    -0.12748919    -0.37424930     0.00085147
O      -7.92465806     2.48511101    -3.93461184     0.54334519     0.12911449    -0.05263381
O      -7.77467496     2.40888244    -7.96603559    -0.20498454     0.07850274    -0.08424818
O      -3.98943268     6.29762898    -3.97841895     0.23178020     0.11977719     0.34401902
O      -3.91518577     6.46560079    -8.00261008     0.14583429    -0.73171631    -0.07557265
O      -7.79897358     6.35660727    -3.90401290    -0.52436257     1.24083443    -0.86457750
O      -7.76188440     6.30564695    -8.00554518    -0.92463700    -0.03868274     0.40147931
O      -3.93133086     4.21024801    -2.04524062    -0.33702861     0.07971371     0.80208147
O      -3.88479073     4.30919779    -6.02528601     0.09412740     0.10286632    -0.95699019
O      -7.91342078     4.49438181    -9.93783390     0.28022095    -0.32048692     0.15125845
O      -7.90399405     4.34201973    -5.93806906     0.46582986     0.49847755     0.18798257
O      -4.03602132     0.05424323    -2.14074677    -0.06424154     0.11960733     0.85650972
O      -3.98779702     0.02872905    -6.01618907    -0.36561449     0.00580860    -0.23002038
O      -7.57968383     0.16379191    -6.02551926    -0.47189844    -0.49992067    -0.33726010
O      -3.92482736     8.64989854    -5.93798479     0.88266720    -0.50121342    -0.64753686
O      -9.74045745     4.34615189    -8.03212853    -0.44893747     0.42855860     0.25588243
O      -9.73021988     4.62867296    -4.10978197    -0.15655716    -0.76887709     0.29050505
O      -5.91103262     4.09532436    -4.06343556     0.39088919     0.02708827     0.25904761
O      -5.82286439     4.62685355    -8.02150937     0.30407009    -0.40350366     0.03106210
O      -1.97580075     0.35169420    -3.89346770     0.34866420    -0.76257256     0.02838584
O      -5.83847295     8.52668255    -7.99538845    -0.37637918    -0.21972042    -0.53185459
O      -5.85850822     0.32015228    -4.06873884    -0.40520838    -0.10549720     0.80028800
O      -9.66563515     8.24408091    -8.11642777    -0.28767340    -0.88136855    -1.12984739
