# total energy = -630.69514964 eV

CRYSTAL
PRIMVEC
        0.00279571     0.02951795    -7.98606283
       -7.83802570     0.01298533    -3.99532603
       -3.92160916     8.71933433     0.00634407
PRIMCOORD
56 1
Li     -4.04425897     2.15361494    -2.06767538     0.28566141     0.13891455     0.61585112
Li     -3.94215935     2.32225556    -6.11588689     0.23685639     0.05819264     0.18851776
Li     -8.00018542     2.19447896    -9.98026572     0.99923234     0.02599304    -0.11427981
Li     -7.76519778     2.16431370    -5.96378782    -0.73101200     0.20549280     0.04866112
Li     -3.83402914     6.69207140    -1.96262003    -0.27791940    -0.44366860     0.12187960
Li     -4.13486717     6.56095214    -5.90832958     0.94404146    -0.03693388     0.43876226
Li     -7.85681152     6.62608750    -9.85466311     0.33640609    -0.34974239    -0.38839255
Li     -8.12185330     6.38422884    -5.80601352     0.73884256    -0.04898905    -0.74310779
Ti     -2.05497380     2.23821162    -4.01183490     0.89590300    -0.38227398     0.03598522
Ti     -5.92421707     6.76888655    -7.83535177    -0.30884012    -0.65608101    -0.51093090
Ti     -7.72462118     4.36567989    -7.69567848    -0.49445240     0.13009934    -1.60304139
Ti     -7.94818400     4.29906191    -3.73159101     0.89519378     0.80125908     1.53620491
Ti     -3.88597809     4.44029263    -7.67166538     0.15807960    -0.02532577    -1.43296072
Ti     -3.96826373     4.39913449    -3.67900606    -0.97448727    -0.54681886    -0.41903353
Ti     -5.71764806     8.66771256    -2.06968722     0.37573655     1.21841878    -0.93842898
Ni     -5.92515056     2.16654753    -8.08005811    -0.25510321    -0.00876102     0.63472845
Ni     -5.85468785     2.30605773    -4.08829965    -0.80706143     0.41273118     0.11341931
Ni     -9.79357707     6.35732794    -8.10695821    -0.73085179     0.25556254     1.14249599
Ni     -9.81731886     6.72253840    -3.83520663    -0.12848700    -0.34745479    -1.23780938
Ni     -1.91204128     2.07207356    -8.12321278    -1.13345066     0.78879468     0.93600122
Ni     -6.00670970     6.40620598    -4.02110772     0.13717121     0.22915820     0.26344552
Ni     -1.99758462     0.06129599    -6.06094911     0.43698212     0.83742647     1.29896600
Mo     -9.83001576     8.68939688   -10.25257061    -0.18850716    -0.81663115    -0.93021336
Mo     -5.76304562     0.12290768    -6.33389754    -1.24009478    -0.69929307    -0.60414763
O      -2.03431694     1.95252047    -2.10332360    -0.06863821     0.07640121     0.69290265
O      -1.95657844     1.89494801    -6.13872366    -0.55924470    -0.08540154     0.27627798
O      -5.81843115     6.82222792    -1.84203816    -0.49308096    -0.08683851    -0.77676233
O      -5.98885954     6.96538989    -5.88172027     0.06233792    -0.21841078    -0.56614268
O      -5.99056559     1.83051300    -9.89324964     0.45796136     0.94354351     0.10497563
O      -5.94817597     2.01510133    -6.18738110     0.81876910     0.52685538     0.59208728
O      -9.75822464     6.65603866    -9.97854018    -0.71670928     0.62029086    -0.94776472
O      -9.83436630     7.04232519    -5.76416167    -0.55181232    -0.85017624     0.44161604
O      -3.92769955     2.41526587    -4.09447307    -0.35780043    -0.31998617     0.18686254
O      -4.10919627     2.51020893    -8.07424101    -0.11050176    -0.67355532     0.31852309
O      -7.81093017     2.39471456    -4.00134679     0.74587681    -0.26353349    -0.23437276
O      -7.89908404     2.39086145    -8.02248259     0.48552971     0.88305494     0.12914137
O      -4.10479948     6.20426693    -3.94922508     0.67558832     2.35281399    -0.34720453
O      -3.90656948     6.42032686    -7.98913743     0.34745696     0.27462684     1.07043512
O      -7.89721666     6.35385794    -4.02988260    -0.15216392    -0.79178940     1.03849033
O      -7.90876952     6.40373223    -7.88897099     0.39624277    -0.55142511    -0.00381614
O      -3.87444502     4.30498464    -1.96122229    -0.25358376    -0.02327181     1.09331702
O      -3.85352161     4.35656592    -5.93677558     0.06479715    -0.03667407    -0.19174222
O      -7.61375467     4.41575422    -9.93075720    -0.76627887    -0.04535265    -1.02001466
O      -7.75044326     4.37542078    -5.97544793    -0.22142826    -0.06312509     0.92855853
O      -7.97768446     8.63597431   -10.01214566    -0.42686573     0.30695251    -0.12164288
O      -4.05464731     0.06925152    -6.07730113     1.34426475     0.72309721    -0.09437880
O      -7.77712497     0.20866201    -5.96199064    -0.41647824    -0.91294602    -0.60948508
O     -11.67589498     8.60236510   -10.04083708     0.19560133    -0.04135990     0.04925593
O      -2.00246730     4.35590286    -3.92312439     1.45707303     0.17725515    -0.51275360
O      -1.97545196     4.01849284    -8.01247225     0.27104125    -0.37546075     0.07134543
O      -5.87990729     4.30985891    -4.06176387    -0.73560043    -0.90449412    -0.04079253
O      -5.83389873     4.89012126    -7.79925365    -0.35091077    -0.54055041    -0.27459019
O      -1.94400507     0.36317615    -3.96410741    -0.32318800    -0.88668993    -0.69528059
O      -2.01362017     0.06106195    -8.09158096     0.03728681    -0.10941668     0.23396340
O      -5.89745456     0.39385592    -4.09673621     0.24796774     0.19749657     0.25240705
O      -9.84591990     8.20547259    -8.07373879    -0.12648790     0.01531624     0.53552145
