# total energy = -630.56195757 eV

CRYSTAL
PRIMVEC
        0.00279571     0.02951795    -7.98606283
       -7.83802570     0.01298533    -3.99532603
       -3.92160916     8.71933433     0.00634407
PRIMCOORD
56 1
Li     -3.98103821     1.97006200    -2.06794643     0.52039254     0.89957746     0.61801490
Li     -3.96699040     1.97288937    -6.10178417     0.02634635     0.75601717     0.26725338
Li     -7.78285140     2.52432875    -9.78704600    -0.02048349    -0.34247661    -1.04712379
Li     -7.83414236     2.24729117    -5.82890672    -0.08610277    -0.11880998    -0.29344120
Li     -3.75506735     6.55906195    -1.84316972    -0.40548674     0.04056772    -0.49781721
Li     -3.74737503     6.36271204    -5.84321656    -0.29628793    -0.07578489    -0.92983362
Li     -7.83030117     6.52972558    -9.84762358    -0.14922933    -0.24015664    -0.62221186
Li     -7.91583299     6.51982599    -5.85812204     0.83163924     0.04521564     0.07935684
Ti     -2.01114186     2.23698512    -4.03497476    -0.34036584     0.20916076     0.40026080
Ti     -5.87955250     6.63733044    -7.99808975     1.57143422    -0.19142258     0.22711296
Ti     -7.90419551     4.32404521    -7.63940495     0.96504004     1.66167032    -0.32301728
Ti     -7.99006110     4.38785140    -3.69143917     0.52210380     0.10264187    -0.76087800
Ti     -3.84980912     4.32342882    -7.77417149    -0.78158011     0.34271018     0.36863847
Ti     -4.04897361     4.44601706    -3.68384928    -0.24627046    -0.00837018    -1.83967502
Ti     -6.11872757     8.66841717    -2.15046399     0.79191583     0.00137794     0.34640398
Ni     -5.89933551     2.34692693    -8.03541228     0.87637413     0.83036991    -0.14871476
Ni     -5.86317942     2.24577718    -4.06308430    -0.72686260     0.04836077    -0.65300323
Ni     -9.66784673     6.45643991    -7.82615177    -1.09922172     0.78846247    -1.58070815
Ni     -9.72274789     6.50981229    -3.89427355    -1.09277559     1.22815822    -0.73589701
Ni     -1.91264804     1.92778972    -7.91626861    -0.39996631     0.52490089    -0.53428170
Ni     -5.90424602     6.53355925    -4.12881811     0.51394185     0.07179106     0.97589880
Ni     -1.98237471     0.04382886    -5.91700442     0.47381190    -1.52854829    -0.94583842
Mo     -6.03841620     0.12738056   -10.33391465     0.59086366     0.10689801     0.20088265
Mo     -9.82676416     8.71851823    -6.36462761    -0.66018577    -0.85070859    -0.79790015
O      -1.88295709     1.85804154    -2.02101682    -0.48457696    -0.18891175     0.08756188
O      -1.92209643     1.84975556    -5.93520528    -0.11224257     0.47958760    -0.59189103
O      -5.70422400     6.76909434    -2.10646146    -1.22095283     0.17713562     0.63804015
O      -5.75004355     6.93029622    -5.99734070    -0.83342471    -0.16571997     0.34801901
O      -5.84638976     2.11187639   -10.19671220    -0.41339048    -0.53424127     0.73075381
O      -5.96671392     1.92016906    -5.99525334     0.69491726     0.86624395     0.98955249
O      -9.70073679     6.99913558    -9.78086190    -0.33670692    -0.04138779     0.22060950
O      -9.71091718     6.74950633    -6.01551416    -0.39115354     0.55276024     0.41885299
O      -3.88070110     2.32673090    -4.08077228    -0.64655664     0.64127233     0.50187647
O      -3.93453513     2.39892426    -8.01721103     0.11602205    -0.27907396    -0.12987427
O      -7.93025584     2.46778053    -3.96844881     0.80210471    -0.35024134     0.46865988
O      -7.84224526     2.45594306    -7.92070648     0.24512748    -0.54410940    -0.39484941
O      -3.71042191     6.32633814    -4.06712226    -0.48322700    -0.59462249     1.59977933
O      -3.92652414     6.39395103    -8.00130275     0.31874420    -0.32588348     0.68265690
O      -7.84501093     6.42325570    -3.90467440     0.38993339    -0.78764131    -0.14309636
O      -7.77607306     6.35347975    -7.95282920    -0.47878119    -0.31358194     0.59209052
O      -3.65585830     4.29445090    -2.01748866    -0.77148202     0.01495260     0.85498762
O      -3.84917249     4.30384112    -6.01941557     0.35562538     0.10931385     0.53939512
O      -7.92483264     4.41610995    -9.92463076     0.31577435     0.12998559     0.65048251
O      -7.81246288     4.34924775    -5.90806309    -0.12031486     0.40546392     0.02388793
O      -4.00053860     0.11405202    -2.17003672     0.56681124    -0.41256568     0.45143769
O      -4.12755815     0.11234425    -5.97329494     0.53440849    -0.71594221    -0.35246764
O     -11.60171209     8.70414512    -5.92109135     0.77362234    -0.27879395    -0.40092122
O      -7.76952333     0.13038232   -10.26074717    -0.42772791     0.04642721     0.31051361
O      -1.96006092     4.22079093    -3.93416445     0.10326460    -1.21855337    -0.53082015
O      -9.83262022     4.73670265    -4.00583395     0.93089706    -0.88949187     0.13931383
O      -5.97726690     4.58636412    -4.07538786     0.90076538     0.01902177     0.57240233
O      -5.79422568     4.57391103    -7.95362495    -1.14169354    -1.07075501    -0.29585707
O      -1.86075259     0.03744811    -4.02119112    -0.02819506     0.75180348     0.06239099
O      -5.98498320     8.51227982    -8.03780389    -0.02201936     0.01261147    -0.34362037
O      -9.65417008     8.37498499    -4.06211549    -0.61138951     0.21301466    -0.00720421
O      -5.89810688     0.53689074    -8.20491453    -0.28534674    -0.40141974     0.46185167
