# total energy = -630.85088106 eV

CRYSTAL
PRIMVEC
        0.00285542     0.02004370    -7.95977623
       -7.82940539     0.00763210    -3.98158109
       -3.91729101     8.74642787     0.01461334
PRIMCOORD
56 1
Li     -4.07627907     2.10397184    -1.87414696     0.76518918     0.27656870    -0.28801850
Li     -3.96857340     2.19389481    -5.95920389     0.14447398     0.02774224    -0.28575397
Li     -7.80587500     2.16414949    -9.87250577     0.07167160    -0.01322220    -0.36496086
Li     -7.64735302     2.40157615    -5.93005877    -0.71959627    -0.32961622     0.38828041
Li     -3.72151108     6.31488210    -1.85496441    -0.91121077    -0.04716871    -0.37316698
Li     -4.00490418     6.53117532    -5.73318660     0.47189058    -0.13525346    -0.52601774
Li     -7.76252160     6.59444114    -9.82258825    -0.37708266    -0.58609357    -0.60643557
Li     -7.96545404     6.34439218    -5.85257232     0.66968395     0.24392440     0.20614590
Ti     -1.94968032     2.23863649    -3.96696623    -1.09287438     0.27802822    -0.54560954
Ti     -5.84242365     6.78157290    -7.96418325     0.13236030    -2.87434442     0.80095712
Ti     -7.81697085     4.34525039    -7.68062526     0.38802691     0.41175617    -0.43092713
Ti     -7.90971597     4.32126916    -3.65674866     0.02176690    -0.22981179    -1.01010080
Ti     -3.80870216     4.26718965    -7.73710050    -0.83072181    -0.13494636     1.17791437
Ti     -4.05314686     4.37707062    -3.76254404     1.13135082    -0.58605119    -2.04761652
Ti     -2.10096181     0.02163819    -2.10836440     0.64465543     0.35031785    -0.64583573
Ni     -5.89819490     2.48962863    -8.05633938     1.36859466    -1.46652833     0.27192004
Ni     -5.94756788     2.24140859    -4.02055378     1.38696005    -0.31415629    -0.85881074
Ni     -9.74132991     6.58470014    -7.85966228    -0.63018121    -0.23700671     0.39728768
Ni     -9.89037892     6.53495264    -3.97284865     1.05133979     1.97337603     0.29802866
Ni     -1.90864729     2.06941179    -7.89085950    -0.36348905     0.08713991    -0.75235705
Ni     -5.84976726     6.60264401    -3.96566037     0.03861429    -0.32505482     0.23208250
Ni     -2.01803149     0.07801269    -5.96812876     0.42441540    -0.49991550     0.68114273
Mo     -9.83555273     8.68166689   -10.22888799    -1.53018288     1.28086575     0.04473752
Mo     -9.79383220     8.75363428    -6.38460791    -0.50368917     0.96454355    -0.18976861
O      -2.01820932     1.90562990    -1.87545309     0.80839148     0.27495702    -0.40582532
O      -1.91103281     1.88808193    -6.04626157    -0.13100987     0.15918476     0.60882702
O      -5.78318523     6.83676860    -2.00818243    -0.56460414    -0.40119532     0.50176906
O      -5.81453908     7.01716497    -5.84210000    -0.86318933    -1.09681671    -0.32218499
O      -5.88630194     1.96770187   -10.19370777    -0.11649372    -0.16236639     1.05730785
O      -5.86387942     2.03399079    -5.85164298    -0.18591816    -0.80458942    -0.53323142
O      -9.71549223     6.91607780    -9.72188171    -0.23334446    -0.93291797     0.54365795
O      -9.80718750     6.87180283    -5.95917859     0.58099989    -0.72584775    -0.65867829
O      -3.83613864     2.32881348    -4.09552246    -0.42117157     0.16931534     1.09488350
O      -3.91920386     2.34017802    -7.95362434     0.19362811     0.84891660     0.04644520
O      -7.82903701     2.35776616    -3.88547301    -0.62495295     0.30013952    -0.54752459
O      -7.75841454     2.42157121    -7.96060333    -0.69880762     0.12649660     0.22665800
O      -3.92945744     6.29150337    -3.82334790     0.95832949     0.71652885    -0.74795153
O      -3.98134162     6.30585508    -7.85581995    -0.04462039     0.50977352    -0.35495505
O      -7.67122618     6.18839123    -3.91626020    -0.52289352     2.21387409    -0.14275726
O      -7.84428759     6.25966817    -7.91806949     0.59761869     1.56274503     0.13427728
O      -3.82987187     4.18757823    -2.08110048     0.43389309     0.06272444     2.57634094
O      -3.85980537     4.23365148    -5.96981969     0.16863195     0.41142605    -0.11970128
O      -7.93598874     4.43064875    -9.90643909     0.52557413    -0.23359434     1.42663523
O      -7.82043235     4.42889115    -5.92005474    -0.33730691    -0.60297136    -0.31639183
O      -4.00106486     0.06446917    -9.93692971     0.52334289    -0.48456833    -0.34853195
O      -4.05740854     0.07284734    -6.13915257     0.01341217    -0.26962408     0.18561130
O      -7.70102356     0.03475034    -6.12429016     0.23388798     0.05636027     0.15405838
O     -11.62590027     8.72683698   -10.00792162     0.23356837     0.11125741     0.11330106
O      -1.90339677     4.11529870    -4.11409392    -0.18232089     0.06605596     0.80015060
O      -9.80397411     4.77557016    -3.94103101     0.26996184    -1.04152788    -0.55549003
O      -5.86830450     4.25174349    -3.96159992    -1.70481231    -0.37976703    -0.17900724
O      -5.79292837     4.39937636    -7.93736323    -0.87620200    -0.31133764    -0.45195101
O      -1.95358019     0.27061686    -3.95480476    -0.10091200    -0.14215067    -0.08142049
O      -5.84033813     8.51329199    -7.98996348    -0.03707542     1.91716677    -0.12306471
O      -9.86109501     8.56227158    -4.09196544     0.49228612    -0.16360379     0.56156531
O      -5.90077736     0.61816248    -8.15377359     0.02602142     0.09684466     0.25247371
