# total energy = -630.67866308 eV

CRYSTAL
PRIMVEC
        0.00279571     0.02951795    -7.98606283
       -7.83802570     0.01298533    -3.99532603
       -3.92160916     8.71933433     0.00634407
PRIMCOORD
56 1
Li     -3.94043569     2.16857049    -1.88841709     0.36978217    -0.25233419     0.02073736
Li     -4.02926643     1.89795603    -6.13036908     1.19545078     0.26696265     0.59677201
Li     -7.88797881     2.25870815    -9.90579780     0.62097446     0.04935666    -0.47495622
Li     -7.81832416     2.04440203    -5.96189916     0.03329534     0.50610852     0.18757929
Li     -3.99580007     6.58467683    -2.06364089     0.50062916     0.06855432     0.99592637
Li     -3.87358866     6.41987859    -5.82021289     0.37192752    -0.06830962    -0.12048547
Li     -7.87111621     6.56320419    -9.97041080     0.17606655     0.12272530     0.16526733
Li     -7.77936586     6.63136753    -5.88921198     0.16879410    -0.39539679    -0.13463810
Ti     -2.05468620     2.32734412    -4.12101740     0.66305332    -0.53263911     0.45071158
Ti     -5.79334394     6.78553025    -8.06846368    -0.14175612    -0.57663539     1.08949970
Ti     -7.88888178     4.49596964    -7.80061920    -0.07699845    -1.25479439    -0.49959751
Ti     -8.06972500     4.45360835    -3.69534456     1.66503295    -0.93000291     0.55778365
Ti     -4.00887766     4.23178196    -7.74047115     0.12143504     1.35410643     1.07339190
Ti     -4.19240430     4.35793481    -3.75222737     0.99015001     0.37591973    -0.71704307
Ti     -1.94571824     0.01555809    -2.18627015    -0.84212830     1.47715206     0.22023115
Ni     -5.90707129     2.34474925    -7.95678761     0.05244788    -0.48773158    -0.60803028
Ni     -5.78043880     2.13786370    -3.97804842    -1.09731832    -0.17864395    -0.26184672
Ni     -9.79836776     6.48807986    -7.80379313     0.76418156     0.45248938    -0.26019904
Ni     -9.82424908     6.49720534    -3.95827218    -0.17910130    -0.03033883     0.35875437
Ni     -1.93393928     2.17283198    -8.01934377     0.28518428    -0.03459985     0.42376093
Ni     -5.87627484     6.61519380    -4.00944639    -0.29444198     0.07257956    -0.45781043
Ni     -5.80962521     8.66719041    -5.99258092     0.42969174     0.19671577    -0.20430297
Mo     -5.87064937     0.08085753   -10.24211169     0.04641817    -0.61026097    -0.28935608
Mo     -9.77454595     8.63450127    -6.33157731    -0.90782858     0.15038261    -0.74600477
O      -2.05902571     1.95102009    -1.99502418     1.11732972    -0.26888814     0.01224939
O      -1.94715721     1.79013602    -6.06948799     0.12984720     0.41274941     0.32475171
O      -5.87509466     6.86134583    -2.11672801     0.00155779    -1.31959956     0.95560438
O      -5.70053403     6.79842576    -5.98245861    -1.17129409     0.85542606     0.23900569
O      -5.77860751     2.02074806   -10.04353231    -0.90177095    -0.45064672    -0.30821970
O      -5.78429855     1.84728729    -5.88965560    -1.44806832     0.46167715     0.37331490
O      -9.74912728     6.90931318    -9.71685943    -0.38129716     0.11000621    -0.18198198
O      -9.78800892     6.80134140    -5.83802043    -0.02377140    -0.76369397    -1.47063658
O      -3.90554515     2.33425494    -4.05859675    -1.04026069     0.03048292    -0.28437144
O      -3.84352654     2.35180797    -7.90023236    -0.49678512    -0.17956208    -0.45901032
O      -7.84637948     2.48401088    -3.98309695     0.26953861     0.27961927    -0.00878314
O      -7.83799100     2.50991227    -7.94708939    -0.43181051    -0.85878730    -0.47111311
O      -3.77708388     6.38526633    -3.80944868    -0.75521831    -1.16833934    -0.95319650
O      -3.95644224     6.30980624    -8.05368609    -0.12290023    -0.26289571    -0.20895211
O      -7.87785654     6.38081078    -3.97181792    -0.46349898     0.15813441    -0.06266871
O      -7.74786697     6.39013674    -7.99092790    -0.11287522     0.98942634     0.38145929
O      -4.04997561     4.00659235    -2.05631489     0.38793312     1.34577859     0.68154684
O      -3.90386048     4.45194679    -5.98276453    -0.32066645    -0.38796762    -0.03857944
O      -7.71820924     4.52383961    -9.90766278    -0.91049269    -0.35113801    -1.46824487
O      -8.01675558     4.47210990    -6.09541267     0.30755687     0.29167837     1.91595271
O      -7.83125277     8.70227556    -2.02876297    -1.04544886     0.25618005     0.15430935
O      -7.99665075     8.69929830    -6.21345183     1.23088806    -0.65274401     0.48159677
O     -11.65007726     8.70174483    -5.98395824    -0.03300229     0.31060873    -0.54166253
O     -11.61482180     8.75068988   -10.15989986     0.44126826     0.34128647     0.54297325
O      -2.08308937     4.13954276    -4.08257259     0.83328613     0.66137639    -0.08425678
O      -2.07419057     4.48331522    -7.91075975     0.82635261     0.75935022    -0.58458194
O      -5.98714091     4.73307583    -4.01761632    -0.37481827    -0.23651749    -0.34562969
O      -5.88553751     4.27614435    -7.96938792    -0.52663131    -0.21883454     0.11795733
O      -2.05176044     0.20614699    -3.99398281     0.69888790    -0.57007985    -1.22793708
O      -5.71570896     8.56158211    -8.04943829    -0.38030908     0.09577180    -0.01033078
O      -9.71961869     8.47478149    -4.06360546     0.12141140    -0.06841278     0.32319322
O      -5.91295536     0.43964387    -8.14397888    -0.32683447     1.01804242     1.02591625
