# total energy = -630.27305854 eV

CRYSTAL
PRIMVEC
        0.00285542     0.02004370    -7.95977623
       -7.82940539     0.00763210    -3.98158109
       -3.91729101     8.74642787     0.01461334
PRIMCOORD
56 1
Li     -3.81671013     2.30848835    -1.91055739    -0.14147028     0.13450797    -0.16995010
Li     -3.94320109     2.15584900    -6.05616245    -0.51573023     0.03176495     0.24395080
Li     -7.86729118     2.21304350    -9.97862847     0.08000672     0.30212903    -0.43617647
Li     -7.85887368     2.15729232    -5.82663653     0.21822445     0.22233711    -0.13881903
Li     -3.85856106     6.56482940    -1.92207988     0.07221252    -0.38268363    -0.24223617
Li     -3.78034064     6.53779544    -5.85154420    -0.31843361    -0.06951262    -0.03417990
Li     -7.78141740     6.45806349    -9.90845808    -0.75860284    -0.34610517     0.05385288
Li     -7.86350074     6.55286088    -6.01476977     0.09002895    -0.12819607     0.49537038
Ti     -1.94221754     2.25212266    -4.13899447    -1.84802298    -0.08831626     0.87866760
Ti     -5.82537303     6.55410472    -7.92504226    -0.37695797    -0.70159206     1.06533812
Ti     -7.84587908     4.35592691    -7.68423892     0.08312001     0.67966554     0.18494879
Ti     -7.75284893     4.44545104    -3.78693993    -0.58792009    -0.60839136    -0.72190376
Ti     -3.74373401     4.37713543    -7.68637984    -0.19732436    -0.49718891     1.05408660
Ti     -3.97150733     4.46507572    -3.77932366     0.02184213    -0.48519976    -1.61710601
Ti     -6.05440473     8.62234504    -1.98845938    -0.44282445     2.34909583     0.39376049
Ni     -5.99097993     2.45447178    -7.96922090     1.19196062     0.33800831     0.06327456
Ni     -5.87848114     2.14258845    -3.98156845    -0.12873251    -0.40625086    -0.06026588
Ni     -9.76410107     6.61655080    -7.95458598    -0.34786178     0.23656660     0.65546365
Ni     -9.72787493     6.65141773    -3.97192302    -0.68060348    -1.20686238    -0.19253158
Ni     -1.89526354     1.84244678    -7.99706558    -0.89387507     0.67408846     0.31913833
Ni     -5.96127078     6.65244778    -3.86799492     1.31099008    -1.14968540    -1.53635820
Ni     -6.08766980     8.61577479    -5.86445797     1.00035004     0.62837807    -0.50739181
Mo     -5.90751344     0.19012530   -10.19996792     0.22180139     0.18451234    -0.57664773
Mo     -9.80173287     8.64855334    -6.37250418     1.42653712     2.39270005    -0.06129966
O      -1.85701656     1.92430387    -2.05889891    -0.96581767    -1.73485436     0.45096190
O      -2.04031689     1.72192408    -6.03411717     0.15942804    -0.12368378     0.07049495
O      -5.84688842     6.69943041    -1.88613383    -0.43673754     0.34688616    -0.86629809
O      -5.99054708     6.84180170    -5.90136208     0.50738111    -0.61247805     0.01171836
O      -5.79217503     2.12421409   -10.02893948    -0.43138805    -0.15607472    -0.72212848
O      -5.99015270     1.96825066    -5.80386904     1.15316723    -0.52069523    -0.79416189
O      -9.66615791     6.97037113    -9.78516523    -0.44524899     0.32232934    -0.15009489
O      -9.70738046     6.83693661    -6.00568091    -1.06974962    -1.61796347    -0.03375073
O      -3.92358858     2.34258895    -4.12517663     0.07808769     0.57278993     1.17887243
O      -4.06744485     2.44575822    -7.95819040     0.71811409     1.19655581     0.13850552
O      -8.04500610     2.46820630    -3.94752062     1.74112518    -0.27431502     0.10854998
O      -7.93403897     2.38937478    -8.04162548     1.92116096    -0.40510060    -0.00786274
O      -3.73877672     6.39361363    -3.94048785    -0.55887446     0.26041365    -0.08348832
O      -3.98428716     6.37394078    -7.93202446     0.99865359    -0.06107224     0.48491951
O      -7.86531148     6.40457411    -4.06817913    -0.29736890     0.11764298     1.07936960
O      -7.98427794     6.26552930    -7.95804097     1.77218578     0.32556745     0.11802344
O      -3.83713295     4.44390554    -2.07065153     0.05827682    -0.47601804     1.95077957
O      -3.83238657     4.39384091    -5.87444668     0.05711881     0.14940165    -2.09250021
O      -7.88208865     4.33088655   -10.01568099     0.25689735     0.21234005     0.75156697
O      -7.86263085     4.27096980    -5.93779742    -0.11140434     0.02971416    -0.17130067
O      -3.97835841     0.14456696    -9.94261600     1.81592675    -0.49112746     0.15709110
O      -7.94816945     8.60666846    -6.00491270    -0.58957990     0.87348597    -0.33641091
O     -11.51150505     8.75301411    -5.97030791    -1.55609514    -0.71007292    -0.07744256
O      -7.63091957     0.10799401   -10.01465803    -1.48908204    -0.16508040     0.55946548
O      -1.90217593     4.08376859    -4.04774970    -1.35702609     0.08110842    -0.21871482
O      -9.80030373     4.78517158    -3.98473287     0.63500920    -0.13230019    -0.09955379
O      -5.83520822     4.81212119    -4.04429727    -0.91531506    -0.31251014     0.30390189
O      -5.94627550     4.55146502    -7.96805564     0.84819587    -1.13410349     0.06569239
O      -5.82443043     8.49246582    -3.81658550    -0.13018189     1.12370111    -0.84248748
O      -5.77516872     8.39285803    -7.94970650    -0.63721440     1.27144343    -0.46813949
O      -9.77196941     8.52471210    -4.00221840     0.41323238    -0.27872214    -0.48509459
O      -5.77807851     0.65814976    -8.10412157    -0.73442975    -0.73385089     0.77486329
