# total energy = -630.37400496 eV

CRYSTAL
PRIMVEC
        0.00279571     0.02951795    -7.98606283
       -7.83802570     0.01298533    -3.99532603
       -3.92160916     8.71933433     0.00634407
PRIMCOORD
56 1
Li     -3.99192788     2.18025776    -1.85368027     0.35580948     0.25531259    -0.05104448
Li     -3.85731279     2.38015115    -6.05275293    -0.62710008    -0.26143478     0.44784863
Li     -7.87655694     2.29238461    -9.96773406     0.31566586    -0.26098422     0.30921253
Li     -7.77481559     2.38352360    -5.99672728    -0.21247710    -0.20960002     0.45656543
Li     -3.89341090     6.40143074    -1.84430131    -0.43813460    -0.06004604    -0.40339667
Li     -3.96592294     6.58358386    -5.99048422     0.24059191    -0.04049201     0.60807256
Li     -8.07138744     6.52567038   -10.02214707     0.71372598    -0.09280737    -0.02478178
Li     -7.80184765     6.28173198    -5.74327066    -0.15341524     0.14890848    -0.94267087
Ti     -2.05777520     2.14443704    -4.07479444     0.37398643     0.37144948     0.79739944
Ti     -6.06360245     6.64767614    -7.97831371     1.76234542    -0.23491040    -0.29543472
Ti     -7.86879672     4.32910605    -7.78717414     0.50162544     0.62192088     0.15915868
Ti     -7.69846892     4.27062289    -3.70516228    -0.12559633     1.26456921     0.73557499
Ti     -3.88839568     4.43782709    -7.69864745    -0.00180834    -0.03924973     0.25116335
Ti     -3.90370052     4.36204039    -3.74645586    -0.40794988     0.42552408     0.75736555
Ti     -1.91849383     0.04565711    -2.09801584    -0.23591171    -1.18523564     0.42531149
Ni     -5.89980165     2.39207627    -7.98348517     0.85374157     0.41284835    -0.15289589
Ni     -5.87265654     2.00944300    -4.09356187     0.13531904     1.00269608    -0.71853876
Ni     -9.79816851     6.74797831    -7.92657300    -1.11632089    -0.68167519     0.90743147
Ni     -9.86977992     6.37523775    -4.06983940     0.44515112     0.44588248     0.72386163
Ni     -1.94602522     2.10029173    -7.90835495    -0.56233854     0.50713697    -0.48988535
Ni     -5.86284599     6.60545933    -3.94988243    -0.30365180    -1.01261523    -0.27350627
Ni     -5.91943910     8.71725810    -5.98969388     0.01108362    -1.00910598     0.46649903
Mo     -5.87358266     0.11342908   -10.36479433     0.00516687    -0.88614741     0.88261983
Mo     -9.77945316     8.72823623    -6.32660589     1.54533721    -0.37547185     0.39535938
O      -2.02134487     1.89257038    -2.00446304     0.39179516     0.58633402     0.79984046
O      -1.99565603     1.80609816    -5.98245902     0.32442155     0.86914611    -0.77701345
O      -5.89209550     6.77802426    -2.03410786    -0.06680712     0.19605364     0.31323269
O      -5.84660459     6.86994762    -5.86595958    -0.75621351     0.37822176    -0.69053581
O      -5.83274139     2.02849502   -10.26775925    -0.39202063    -0.05277282     1.97599622
O      -5.79801969     2.06911133    -5.94193325    -0.89079586    -0.93921961    -0.07137806
O      -9.87742062     6.90248517    -9.76755763     0.46280151     0.59942352    -0.87499176
O      -9.82941713     6.76173903    -5.96760045     0.51253413     0.87945083    -1.27915053
O      -3.94140617     2.29708103    -4.01333154     0.22884444     0.58553466    -0.19477559
O      -3.88982851     2.47529664    -7.88885171    -0.37566611     0.15719731    -0.79549195
O      -7.91760458     2.38393141    -3.86468825     0.33247584    -0.40951364    -1.14996748
O      -7.88482945     2.44071578    -7.95931206     0.83790605    -1.30611830    -0.37360819
O      -3.91486456     6.29162733    -3.86718535     0.67796349     1.13451923    -0.43893962
O      -4.04247883     6.43957266    -7.89084247     0.71636989    -0.98393503    -0.57045454
O      -7.85154222     6.32587160    -3.99264896    -0.41580360    -0.94939277     1.09314953
O      -7.90443098     6.35084462    -8.03531240    -0.65158313     0.38660458     0.54612711
O      -4.13111049     4.36075329    -1.99242631     0.29692941    -0.24984587    -0.27479309
O      -3.90842498     4.42637911    -5.92863960     0.24527616    -0.17903354    -0.20224628
O      -7.82326508     4.30244743    -9.86008410    -0.34863898     0.41857466    -2.22509698
O      -7.92101634     4.35373378    -6.04039273     0.32443526     0.18826490     1.29191771
O      -3.96249040     0.03064582    -2.15151649    -0.80193021    -0.10426518     0.40976228
O      -4.02124248     0.11657326    -6.03707229    -1.19835866    -0.82834286    -0.24640440
O      -7.70262918     0.09106529    -5.87010044     0.07534734    -0.00578666    -1.14723369
O      -7.66777119     0.09031697   -10.05265303    -0.07765670     0.19641252    -0.17012770
O      -1.94230229     4.06295891    -3.74677059    -2.04665079    -0.48377897    -1.48778038
O      -2.00540257     4.42738268    -0.03337661     0.87451922     0.64908315    -0.02357801
O      -5.86032457     4.48176549    -4.20417819    -0.76904325     0.03989132     0.91169812
O      -5.90537120     4.49009624    -7.94530598    -0.00821909    -0.47543516     0.01460018
O      -1.95553957     0.18743761    -3.97938307     0.42070137    -0.22587440    -0.19810020
O      -5.99561121     8.46407127    -8.07737429     0.01845923     0.62330104     0.50438659
O      -9.74481177     8.53256683    -4.15405220    -0.24895132    -0.66314145     0.54954973
O      -5.73483869     0.54851018    -8.09239900    -0.94697671     0.53444600    -0.17400518
