# total energy = -630.12400364 eV

CRYSTAL
PRIMVEC
        0.00285542     0.02004370    -7.95977623
       -7.82940539     0.00763210    -3.98158109
       -3.91729101     8.74642787     0.01461334
PRIMCOORD
56 1
Li     -3.80367970     2.34615510    -2.02484186    -0.71789529    -0.23372942     0.42320331
Li     -3.95042705     2.13836322    -5.91700147     0.05311325     0.14801517    -0.39589967
Li     -7.72621118     2.08856278    -9.93481752    -0.51244208    -0.05673793    -0.31807634
Li     -7.89278519     2.59005683    -5.79222208     0.17240998    -0.64795494    -0.28867283
Li     -3.79517438     6.43096436    -1.81641573    -0.17213984     0.10194837    -0.33605168
Li     -3.75963699     6.55402756    -6.02125631    -0.85440020    -0.08286861     0.78204325
Li     -7.72603732     6.81490641   -10.01807117    -0.88842839    -0.34175100     0.37389823
Li     -7.86407300     6.42501032    -5.93202663     0.24143447    -0.12168325     0.19396778
Ti     -1.92263390     2.23804594    -4.06092479    -1.69863668     1.00437482    -0.67642292
Ti     -5.92617937     6.87216696    -7.98968560     0.27970119     0.55544498     1.50091941
Ti     -7.77446707     4.36394917    -7.74864569    -1.18224958     1.22806303    -0.91573593
Ti     -7.85286111     4.39868441    -3.54896330     0.27378024    -0.41627871    -0.79020498
Ti     -3.92769501     4.28201034    -7.63410943    -0.16198554    -0.11071090     0.79440249
Ti     -4.01774754     4.51010031    -3.66814961     0.04530405    -0.69976828    -0.12619424
Ti     -1.86148466     0.01667657    -2.16084407     0.86108174    -0.38349497    -0.93596113
Ni     -5.93622366     2.33517341    -8.00689322     0.61804182    -1.12135614     0.28918062
Ni     -5.93733386     2.28424630    -4.11886742     0.97134832     0.28407486     0.89763157
Ni     -9.75607616     6.61923886    -8.00269382    -0.59456340    -0.61391581     0.81361423
Ni     -9.76415603     6.29420986    -3.91933096    -1.24644638     0.51719224    -0.33642812
Ni     -1.87356211     2.19997882    -7.97971583    -1.10573395    -2.12584739     0.83379843
Ni     -6.02597002     6.62384100    -3.88773426     1.43191997     0.01434469    -1.30903493
Ni     -5.96147364     8.75965317    -5.95960152     0.82449455    -2.03660229    -0.21697378
Mo     -5.89884890     0.05031884   -10.29108033    -0.32259765    -0.69918353    -0.42997778
Mo     -9.75124996     8.69252013    -6.24700349    -0.82950512    -1.54250755     0.15507423
O      -1.97268214     1.84645781    -1.93498727     0.80022043     1.28616047    -1.00933392
O      -1.90404054     1.74841431    -6.08404406    -0.61015008     2.53938575     0.86660970
O      -5.82046612     6.76122513    -1.94087691    -0.72393655     0.09721956    -0.44207496
O      -5.91942016     6.91493318    -5.85568342    -0.33350376    -0.21466068    -0.35596675
O      -5.83954553     1.88739934    -9.93590296    -0.27540491     1.88153282    -0.17284319
O      -5.96180781     1.91075067    -5.97786818    -0.03174001     1.30876645    -0.43146228
O      -9.67705143     6.81739801    -9.99008519    -0.65429216     0.54516615     0.65663675
O      -9.72780353     6.75286079    -5.91946047    -0.62762176     0.43949624    -0.22228145
O      -3.98503100     2.39194743    -4.03146075     0.66547894     0.63104700     0.41965513
O      -3.97985683     2.38549059    -8.00491206    -0.13655290    -0.13955895     0.66705444
O      -7.80116793     2.42421089    -3.92225568     0.39091274    -0.06791309    -0.32108334
O      -7.88536826     2.45577912    -8.04143438     0.44817246    -1.13992206     0.48955551
O      -3.86680025     6.43111303    -3.99480475     0.16433127    -0.79775943     0.49634790
O      -4.05239142     6.23265683    -7.87698869     0.42129139     0.47864781    -0.19484611
O      -7.96455303     6.28875000    -3.98650549     1.17756143     0.28241294     0.50430752
O      -7.81224415     6.35966030    -7.94293081     0.63829547     0.62325928    -0.29478423
O      -3.79811203     4.33034105    -1.86359320    -0.01145059     0.57565653    -1.57530914
O      -3.74763830     4.35868037    -5.85116309    -0.49297080     0.05807792    -1.08985692
O      -7.79961234     4.41328845    -9.78852780    -0.14778472     0.23988789     0.17930953
O      -7.97511009     4.40068326    -6.04295077    -0.12400051     0.32071319     1.85718448
O      -4.03836636     0.05128135    -2.05935662     0.50624784    -1.05248650    -0.15116377
O      -7.97628840     8.66688209    -6.12858735     0.86390396     0.52355576     0.30108362
O     -11.64182355     8.57391029    -6.00465417    -1.08382793     0.19172371     0.23095050
O     -11.70113152     8.76576329   -10.16817465     1.75763281    -0.59234645     0.42112849
O      -2.02548847     4.12011930    -3.97965016     0.23384304    -0.29465352     0.05397447
O      -1.88534456     3.95026196    -7.77873780    -0.86600406     1.75687705    -0.52771697
O      -5.95626485     4.27822941    -3.89443237     1.05101468    -0.30078168    -0.52545483
O      -5.92479149     4.18484188    -7.80854308     1.88714510     0.58563784    -0.32144777
O      -1.88820006     0.28576091    -4.08103804    -0.39758182    -0.75067458     1.46919874
O      -5.90245095     8.73833943    -8.05149418    -0.07520004    -1.27409296     0.06214402
O      -5.81170233     0.39577711    -4.13137849    -0.28386805    -0.32041972     0.17098176
O      -6.01973785     0.44716272    -7.98947026     0.21994164     0.42944296    -1.09460704
