# total energy = -630.63801975 eV

CRYSTAL
PRIMVEC
        0.00285542     0.02004370    -7.95977623
       -7.82940539     0.00763210    -3.98158109
       -3.91729101     8.74642787     0.01461334
PRIMCOORD
56 1
Li     -4.06057429     2.25780042    -1.90155219     1.06010806     0.31882662    -0.24516113
Li     -3.99120093     1.78977655    -6.11464694     0.30499745     0.92067425     0.15496210
Li     -7.75823090     2.26521791    -9.93385199    -0.45359013     0.06473844     0.07875757
Li     -7.79520139     2.11215580    -5.91830461    -0.21604262     0.14743580    -0.09833501
Li     -3.85031956     6.36818580    -1.86699061    -0.39975142     0.15690160    -0.38615984
Li     -4.02720997     6.69299602    -5.83659442     0.65201280    -0.39647991    -0.37783637
Li     -7.88876529     6.33801612    -9.76034722     0.09900156     0.07223517    -1.13165150
Li     -7.78008014     6.57401961    -5.89575324    -0.35111786    -0.24028024     0.31722487
Ti     -2.11075779     2.32020740    -4.02126757     0.20343507     0.10901483    -0.40894561
Ti     -5.85308098     6.71099173    -7.91633670     0.12503613     1.34272734    -0.56291562
Ti     -7.79766602     4.35095137    -7.70258360     1.05977293    -1.11994786     1.17091344
Ti     -7.65630706     4.33352049    -3.72164238    -0.86307908     0.38331550    -0.11779208
Ti     -3.75688758     4.37050048    -7.63349457    -0.71300518    -1.14337516     0.36601080
Ti     -4.06710747     4.52142606    -3.71304420     0.48414918    -1.16966893    -0.50953877
Ti     -2.18878986     0.03864741    -2.05048302    -0.14148487     0.16359881     0.56725355
Ni     -5.79401115     2.31710354    -8.08926275    -1.19477035     1.76339057     0.77100351
Ni     -5.88159908     2.01012174    -3.99758536    -0.86390362     0.11868267    -0.23172268
Ni     -9.70970566     6.41895367    -7.90346301    -1.44154674     0.65906917     0.08877982
Ni     -9.77613550     6.47465703    -4.04336787     0.80908761    -0.80230634     0.72898604
Ni     -1.92121476     2.27122141    -7.96544152    -0.62186293    -0.56069859     0.45654508
Ni     -5.93539565     6.84218725    -3.95002266     0.41736200    -1.38232965     0.83912321
Ni     -5.92275303     8.72453251    -5.88430105    -0.04570553     2.24086948    -0.96906157
Mo     -9.91047212     8.76650446   -10.23879372     0.85117300    -0.21842157    -0.76145605
Mo     -9.82486630     8.68444828    -6.31405016     0.17635600    -0.25661612    -1.89409794
O      -1.94858556     1.94220044    -1.92056233     0.11277089     0.24047800    -0.72292778
O      -2.00401094     1.87141916    -6.00000120    -0.15719974    -0.27123014     0.69519616
O      -5.72158368     6.91146181    -1.94976490    -0.88734395    -0.83946995     0.38478995
O      -5.88587197     6.93604829    -5.85755356    -0.01862617    -0.41751238    -1.00157743
O      -5.79803692     1.93003058   -10.09339266    -0.67442674     0.83363735     0.11967265
O      -5.92367180     1.85336425    -5.88708039     0.65084610    -0.14704689     0.39198032
O      -9.73773011     6.90346425    -9.84549997    -0.57905960    -0.05232018     0.83943452
O      -9.86045750     6.75835119    -5.98771638     1.17989651    -0.52475991    -0.24288188
O      -4.08522173     2.40045618    -4.01628055     2.26275944    -0.16830074     0.24000658
O      -3.87379934     2.45820944    -8.00390503     0.33202049    -0.57444048     0.37412518
O      -7.86707207     2.38507472    -3.91969735     0.68800565     0.32309703    -0.54225422
O      -7.82736491     2.38052196    -7.99823631    -0.41287132     0.81621335     0.48266129
O      -3.86846125     6.37003075    -4.05851853     1.27105841     0.79581011     1.19032687
O      -3.91805864     6.24270289    -7.95627857    -0.81458237     1.74355408     0.66480819
O      -7.85445913     6.35545492    -3.77976291    -0.30893489     0.32917321    -0.96460052
O      -7.76953075     6.33481626    -7.94536360     0.33019733     0.26182230     0.35879314
O      -3.99368501     4.27560309    -1.95939295    -0.21416325     0.50489803    -0.57510588
O      -3.94764207     4.23945148    -5.90177521     0.45998946     0.37591228     0.28596663
O      -7.76066717     4.30880379    -9.90186601    -0.18749971     0.41702826    -0.13209564
O      -7.77887419     4.49911015    -5.93815868    -0.39140833    -0.23087934    -0.39458203
O      -3.99332883     0.01083418    -2.07796738     0.30131290     0.15774811     0.32141772
O      -7.94209762     8.62700072    -6.13972276    -0.24025028     0.10879717     0.56048631
O     -11.57255116     8.65739639    -6.07436741    -0.74530321     0.33771589     0.38425499
O      -7.73793452     0.18076882   -10.23027191    -0.87817006    -0.89742718     0.85956570
O      -2.00432943     4.22474126    -3.84017150     0.00694294    -1.05083882    -0.86906838
O      -9.71772353     4.52451365    -4.02553597     0.41195143     0.20465559     0.23164622
O      -5.87398686     4.86104705    -4.06141263    -0.52022192     0.15412278     0.20928269
O      -5.86074764     4.30019597    -7.85502669     0.24054414     0.12508947    -0.61639848
O      -1.89909535     0.24323417    -3.91881330    -0.32092505    -0.42520910    -0.63957532
O      -5.87663232     8.64850887    -7.95333028     0.15448320    -2.18634466    -0.12494195
O      -9.69932921     8.36772865    -4.06746504    -0.17443224     0.23337581    -0.09729599
O      -5.91761556     0.53589875    -8.15174763     0.29639286    -1.11233144     0.60678029
