# total energy = -630.10995407 eV

CRYSTAL
PRIMVEC
        0.00279571     0.02951795    -7.98606283
       -7.83802570     0.01298533    -3.99532603
       -3.92160916     8.71933433     0.00634407
PRIMCOORD
56 1
Li     -4.04324739     1.97994243    -1.85885386     0.21293237     0.50474350    -0.17538233
Li     -3.96012303     2.41755546    -6.00087955    -0.45642534    -0.47600477     0.34944404
Li     -8.01804630     1.91127397    -9.80373635     0.92954995     0.23357344    -1.00763205
Li     -7.79951622     2.44822684    -6.00200931    -0.17726603    -0.04946124     0.27347416
Li     -4.01123651     6.59594428    -2.19343718     0.48037443    -0.49706068     1.13375060
Li     -3.96161362     6.32014251    -5.83750200    -0.35653083    -0.03244526    -0.21035906
Li     -8.04204094     6.66033936    -9.97440261     0.94616343    -0.49793425    -0.12145155
Li     -7.91533359     6.34940988    -5.87724102     0.13788026    -0.20004418     0.15455007
Ti     -2.01927780     2.34773921    -4.07229023     0.08747926     1.07420730     0.94195039
Ti     -5.92328472     6.99548240    -7.85404923    -0.16731913     0.30948596    -0.61523501
Ti     -7.75468416     4.45757348    -7.84765938     0.62983796    -0.78387949    -0.24411679
Ti     -7.83000850     4.34814438    -3.67858128    -0.15762833     0.52901929    -0.76530035
Ti     -3.86199911     4.37602467    -7.70263452     0.20848476    -1.15740001     0.56352254
Ti     -4.00694912     4.37103932    -3.68666775    -0.73430835     0.46656018     0.75966779
Ti     -5.52021819     8.72172096    -2.13754094    -1.14130471    -0.76650039     0.22190084
Ni     -5.87993879     2.34730690    -7.98199112    -0.38022489     0.06350403    -0.54755294
Ni     -5.94775967     2.15691643    -3.87849890    -0.60295759    -0.03776733    -0.65527277
Ni     -9.77080274     6.56680309    -7.98625487    -1.37781521     0.05297801     0.91272762
Ni     -9.85659830     6.43077613    -4.03033092     0.32255680    -0.41283480    -0.14670600
Ni     -2.01084906     2.12760477    -8.03410404     0.57798465     0.49707990     0.58562140
Ni     -5.85276327     6.57976844    -3.96080205    -1.36874886     0.39527147     0.04518282
Ni     -1.96121897     0.03349025    -5.88232832    -0.70640511    -3.17642924    -0.99070127
Mo     -9.84345268     8.64832272   -10.36191187    -2.33113059     2.06279492     0.62003591
Mo     -9.62126949     8.70477537    -6.39136213    -0.28456875     0.32054564    -0.09553626
O      -1.91084069     1.86162169    -2.24650353    -0.30642598     0.64736946     1.05421230
O      -2.13502783     1.75211405    -5.87964349     0.94244553     2.16776908    -0.03621377
O      -5.94556665     6.79876876    -1.94160305     0.42698817     0.58521620     0.81056232
O      -6.02291970     6.82487340    -5.90881016     0.76913255     0.74569833    -0.88287270
O      -6.04100957     2.00593384   -10.02996914     0.68490907    -0.54065365    -0.44119784
O      -5.99387673     1.81070537    -5.80807005     1.04335845     0.03444210     0.20070717
O      -9.96868806     6.82717451    -9.84860481     0.89658487    -0.13029877     0.18864125
O      -9.80265228     6.82801624    -6.05074925     0.52699097    -0.52913781    -0.67118809
O      -3.97667996     2.42490033    -3.87367766    -0.23718509    -0.88308414    -0.45564883
O      -3.87755842     2.36675688    -7.92892560    -0.56791306     0.37319899    -0.41377691
O      -7.91519085     2.46280918    -3.93387343     0.21453208    -1.18877944    -0.33864041
O      -7.82106349     2.43501509    -8.03116923    -0.87873386     0.84022467     0.06013538
O      -3.88970725     6.29436940    -3.98786991     0.78403783     0.44086574     0.12548932
O      -4.05832289     6.21679048    -7.79545141    -0.18933555     2.60155190    -0.82915729
O      -7.93333798     6.31338715    -3.93869094    -0.43692019     0.64659362    -0.54285787
O      -7.86506558     6.43197387    -8.04612062     0.90323571     0.13937583     0.74730540
O      -3.98533413     4.36919320    -1.91235405    -0.11454852     0.08311527    -0.76801275
O      -4.04394129     4.27274611    -5.88986152     0.48517133     0.12506538    -0.87583445
O      -8.06035531     4.56550585    -9.97596895     0.07353814    -0.28408185     2.29274543
O      -7.98500597     4.36021804    -6.10516595    -0.04609993     0.56617290     0.10575785
O      -4.20386648     0.08671429    -9.98552827     0.31133862    -0.31828132     0.19071098
O      -3.91732698     0.03820337    -6.34603507    -0.51403296    -0.36745425     0.85265115
O     -11.60760124     8.58313639    -6.07008728     0.72061882    -0.03545617     0.53041922
O      -0.03016170     0.04630711    -6.20461012     0.80958237    -0.33307953     0.19925788
O      -2.04132104     4.23173407    -4.07775301     0.12967984    -1.08566994     0.13711275
O      -9.79651777     4.40823889    -4.05439615    -0.85568379     0.25564391     0.06575486
O      -5.98624535     4.72273448    -3.94659179     1.34604955    -0.28721617    -0.17017630
O      -5.83324677     4.27975638    -7.83346593    -1.18182497    -0.50643678    -0.91557595
O      -5.74352138     8.55946021    -3.93729099    -0.64980770     0.00936852    -0.76695329
O      -1.98711848     0.14402069    -8.14620900     0.24537695    -1.80126510    -0.21305378
O      -9.65487767     8.33190436    -4.15474147    -0.49327106     0.14469056    -0.49610030
O      -6.12931989     0.54165829    -8.10065551     0.88613901    -0.55151576     0.32569751
