# total energy = -630.26574605 eV

CRYSTAL
PRIMVEC
        0.00279571     0.02951795    -7.98606283
       -7.83802570     0.01298533    -3.99532603
       -3.92160916     8.71933433     0.00634407
PRIMCOORD
56 1
Li     -3.90761681     2.08303225    -1.99806143    -0.26829391     0.26742165     0.26122653
Li     -3.94655258     2.11211158    -5.94975091     0.19969405     0.20462972    -0.35001520
Li     -7.68000230     2.50843587   -10.07224699     0.07335302    -0.23930098     0.38341629
Li     -7.84116933     2.27132106    -5.82776444    -0.15795851    -0.00264630    -0.62735990
Li     -3.86996976     6.43855049    -1.79291288     0.10337892    -0.21354501    -1.19356805
Li     -4.02035957     6.55528531    -5.87116524     0.61756044    -0.00970020     0.14922105
Li     -7.70388798     6.41588947    -9.86658767    -1.56100618    -0.26087719    -0.34384546
Li     -8.00709481     6.87646019    -5.80154021     0.64005271    -0.25175328    -0.43219173
Ti     -1.90530110     2.34472104    -4.17769993    -0.50943354     0.32092474     0.25498327
Ti     -5.81354714     6.72308164    -8.03452139    -1.14361928     0.18127186     0.61530044
Ti     -7.74764090     4.42556955    -7.57774483    -0.59566822     0.67554116     0.25209450
Ti     -7.97739448     4.43010784    -3.80280690     1.01965176    -0.88021096     1.16850278
Ti     -3.95912215     4.33117747    -7.70006705     0.37192111    -1.00820431    -0.68044536
Ti     -4.10809415     4.43994398    -3.71274338    -0.47160681    -1.40338699     0.51357773
Ti     -1.98625916     0.07063838    -2.12698797    -0.72431146     0.05814450    -0.32419518
Ni     -5.90653860     2.26486940    -7.88531143    -0.21395703    -0.57005188    -0.76183776
Ni     -5.88688605     2.14898460    -4.02601752     0.01624087    -0.76829237     0.61257602
Ni     -9.77100079     6.33049542    -8.03848197    -0.87815909    -0.08736199     0.45224142
Ni     -9.84673739     6.45965538    -4.00947286     1.11910601     0.68117086     0.33411682
Ni     -1.90566250     2.16185085    -8.03714561    -0.66700705    -0.15629544     0.43803243
Ni     -5.95788887     6.79866243    -3.97735271     0.53452929    -0.85451031     0.10132396
Ni     -1.93908711     0.10810809    -5.93130718     0.21139718    -0.26966867    -0.08815504
Mo     -9.81477960     8.59854525   -10.33508915     0.93184575     0.10725243    -0.24495534
Mo     -5.93128675     0.15088766    -6.37404933     0.59480033    -2.53706059    -0.31207265
O      -1.92034360     1.97079492    -1.97359206    -0.33029168    -0.19908003     0.23198110
O      -1.94599383     1.92177007    -6.02500472     0.44986369     0.35754780    -0.76654164
O      -5.99286284     6.67665120    -1.94643151     1.93835457     1.20102872    -0.43118291
O      -5.82292599     7.02865255    -5.84014646    -0.61957255    -0.27963504    -0.30424495
O      -5.83834771     1.82758427    -9.91681535    -0.03709183     0.31542007     0.67058631
O      -5.92210503     1.97546167    -5.94887347    -0.06439317     1.19537221    -0.85156011
O      -9.79218223     6.67186533   -10.12266597     0.23084431     0.06250271     0.36076225
O      -9.87644137     6.81218656    -5.83351578     0.04767131     0.70289402    -0.48288030
O      -3.73929965     2.43481427    -4.07737786    -1.20688452    -0.32833053     1.21844063
O      -4.10121135     2.38980694    -7.98413621     0.77602571    -0.20450781    -0.16064729
O      -7.82820278     2.35900452    -4.03406902    -0.28845694    -0.17955930     0.95313433
O      -7.83650382     2.41948236    -7.92841635     0.82298971     1.13934275    -0.14586645
O      -3.88302344     6.26015044    -3.95001483    -0.57451184     1.22518012    -0.57662639
O      -3.88654410     6.31937333    -7.92014982    -0.76654231     0.89801397     0.30403380
O      -7.80016298     6.29457034    -4.02230439    -0.62189267     1.17360155     0.15154548
O      -7.88163897     6.35787504    -7.83964175     0.87789539    -0.27144992    -0.33722949
O      -3.94136510     4.44383488    -1.94910060     0.07932541    -0.53846897    -0.18710484
O      -3.87993775     4.09902917    -5.99373247    -0.27623436     1.10159326     0.85806539
O      -7.75397121     4.48672307   -10.00508119    -0.15453199    -0.63367200     0.19326410
O      -7.80890344     4.37186016    -5.80953605     0.13319550    -0.37389280    -2.10361941
O      -7.89361511     8.68204683    -2.13533916     0.67417480    -0.11002972     0.11931195
O      -4.12790541     0.08715929    -5.91352770    -0.10880236    -0.05172292    -0.92826532
O      -7.76857633     0.10942027    -6.11619414     0.15807075    -0.40736876     0.26406901
O     -11.52015845     8.70869665    -9.98526821    -1.64151604    -0.20097093    -0.37456309
O      -2.02713745     4.42413487    -4.11076216     1.57278058    -0.92735910     0.70370205
O      -1.99215617     4.04932102    -7.96742348    -0.06706290     0.13896252    -0.21738046
O      -5.94577162     3.85037305    -3.90270002     0.58570776     2.88515753    -0.18869997
O      -5.87690209     4.70651457    -7.81480035    -0.32101426     0.26518721    -0.30278326
O      -1.80592201     0.35254695    -3.99121664    -0.42423008     0.08459950    -0.22878808
O      -5.91417053     8.66144295    -8.17777742     0.48609344    -0.48392954     1.59038781
O      -5.82122158     0.35240149    -4.12127249    -0.64171361    -1.17879835     0.38289401
O      -9.80044502     8.15215315    -8.09875889     0.29601816     0.71747051     0.57470612
