# total energy = -630.95304269 eV

CRYSTAL
PRIMVEC
        0.00285542     0.02004370    -7.95977623
       -7.82940539     0.00763210    -3.98158109
       -3.91729101     8.74642787     0.01461334
PRIMCOORD
56 1
Li     -3.99084569     2.22422998    -1.94468852     0.82420864    -0.08613957    -0.27937156
Li     -3.86195164     2.03654716    -6.18685479    -0.32563070     0.30598366     0.55915134
Li     -7.77002154     2.40333488    -9.98835041    -0.22369335    -0.36560621     0.16855310
Li     -7.72319475     2.19470860    -6.08651662    -0.23785540    -0.04307901     0.65138385
Li     -3.86838012     6.44275703    -1.89149869    -0.14848818     0.45337871    -0.10525969
Li     -4.11919284     6.30012972    -5.88703613     0.55412768     0.17974860     0.45229256
Li     -7.95006260     6.18116569    -9.86692168     0.05215647     1.09457725     0.40065436
Li     -7.89284664     6.36577720    -5.82449364     0.44850509     0.13120499     0.11835616
Ti     -1.92470866     2.21459146    -4.03992015    -0.81641416     0.63431581     0.25682287
Ti     -5.88492434     6.93772733    -7.85125970    -0.26113840    -1.06679988     0.20064559
Ti     -7.75590644     4.38722396    -7.74217611    -0.15093977     0.19196164     1.08841617
Ti     -7.78862254     4.31445215    -3.69135839    -0.69933844    -0.13382600    -0.38610099
Ti     -3.83262563     4.39369041    -7.79532474     0.19290790    -0.44403424     0.04059428
Ti     -3.89742723     4.40199520    -3.73423995     0.14598651    -0.15692964     0.23690379
Ti     -6.09303597     8.62947969    -2.20800583    -0.23944951     1.23241344    -0.14104574
Ni     -5.83134386     2.43501648    -8.14022736    -0.04704770    -2.10810113     1.35520400
Ni     -5.81973255     2.30816535    -4.16676148     0.29690575    -0.21963741     0.24721550
Ni     -9.80124502     6.53702125    -7.87515943     0.16974079     0.14561238     0.63016807
Ni     -9.82307432     6.56359776    -3.87998965    -0.28707433    -0.15435079     0.69880926
Ni     -1.93073717     2.06800892    -8.08120316     0.39152222     1.60730851     0.50520381
Ni     -5.98588073     6.47092891    -3.89412818     0.59348175     0.20829232     0.13077748
Ni     -2.05378502     0.03278073    -5.93877629     0.26714357    -0.03443741     1.41788744
Mo     -6.01016226     0.03339086   -10.17027585     2.07807000    -0.57938206     0.00144996
Mo     -9.76482340     8.62494634    -6.22967356    -1.42205175     1.05278170    -1.47158040
O      -1.99878156     1.88191598    -2.02040607     0.61915269    -1.06351215    -0.25674691
O      -1.93413152     1.96186919    -5.93290479    -0.10613677    -1.56295416    -1.60508335
O      -5.89986280     6.75904629    -1.82775314     0.08259879    -0.32791863    -0.65311734
O      -5.93993401     6.92358056    -5.75119696    -0.34387728     0.02582051    -1.36605641
O      -5.77954007     2.03239753   -10.09321770    -0.91420521     0.27765795     0.17593530
O      -5.82764196     1.99293923    -6.15396483    -0.06905044     0.18606649     1.48437779
O      -9.80483681     6.91542819    -9.73269312     0.32985862    -0.25234890    -0.61021412
O      -9.70944818     6.75325924    -5.79685209    -0.81999546    -0.51025340    -0.52323867
O      -3.85920202     2.41898004    -3.99512161    -1.02799504     0.42914849    -0.27056163
O      -3.87608776     2.46827609    -8.03621762    -0.47928387    -0.31883230    -0.15924367
O      -7.69322323     2.37364772    -4.07752871    -0.42572248     0.41777847     0.32652355
O      -7.89183677     2.41624877    -7.99687561     1.62280232    -0.10473238     0.00500083
O      -3.84860911     6.34199285    -4.00914917    -0.20960606    -0.06458683     0.53799981
O      -3.99088902     6.47350352    -7.76117197    -0.08425820    -0.22666528    -0.86809733
O      -7.98327762     6.29462921    -3.81962577     0.64461388    -0.26755470    -0.29495069
O      -7.79734382     6.37941063    -7.89086692    -0.03067050    -0.01578214     0.12924679
O      -3.81722108     4.58046356    -1.96860379    -0.18659086    -0.42705502    -0.47614181
O      -3.80160918     4.41254032    -6.04572098    -0.15145749     0.18223480     0.42205817
O      -7.98756343     4.38275925    -9.83044183     0.59065325    -0.45685946    -2.02921300
O      -7.70116705     4.48462703    -5.96715922    -0.37574291    -0.41442172    -0.49249234
O      -7.87678406     8.71514195    -9.88244833    -0.06090097     0.13366699    -0.56732544
O      -8.01436516     8.68839394    -5.84452943     0.75863096     0.31765760    -0.39215211
O     -11.59901807     8.54284842    -6.00085723     0.01321817     0.63699830     0.02307904
O     -11.60012262     8.71650794    -9.90388103    -2.08338958     0.51992551     0.05821644
O      -1.92252756     4.12744935    -4.01280957    -0.55329163     0.56715341     0.42539340
O      -1.88647254     4.06206647    -0.18659400     0.01138919    -0.62920366     0.42014990
O      -5.85383911     4.40526890    -4.01268480    -0.00482311    -0.41865408     0.15427633
O      -5.87091627     4.26051145    -8.10220164     0.90438579     0.81052540    -0.01856524
O      -2.01946148     0.19632142    -4.05609382     0.17453938    -0.15194477     0.30868954
O      -5.99328777     8.72339631    -7.91139662     0.50136134     0.79142163     0.32237078
O      -5.92644839     0.34887992    -4.02221939     0.17174088     0.29154513    -0.14307959
O      -5.84233065     0.61050040    -8.02307079     0.11335400    -1.34551491    -0.64448185
