# total energy = -630.41453264 eV

CRYSTAL
PRIMVEC
        0.00279571     0.02951795    -7.98606283
       -7.83802570     0.01298533    -3.99532603
       -3.92160916     8.71933433     0.00634407
PRIMCOORD
56 1
Li     -3.88956234     2.50748872    -1.84557585    -0.44967841    -0.44136153    -0.28655388
Li     -3.86362523     2.42577867    -5.98041440    -0.57429514    -0.02971484    -0.05748966
Li     -7.87394823     2.28085168   -10.02769585     0.17685725     0.07479363     0.21825854
Li     -7.84152711     2.25223533    -5.92801351    -0.20774404     0.10279214     0.43712080
Li     -3.94229269     6.43028333    -1.99768638     0.02940227     0.62800642     0.28802806
Li     -3.87894950     6.65037314    -6.05240595    -0.09419593    -0.37927765     0.69167400
Li     -7.91773723     6.25608388   -10.05547293     0.59056246     1.06620438     1.00509424
Li     -8.03807674     6.79114239    -5.88217075     1.66202508    -1.22551090     0.05171234
Ti     -1.99133737     2.31188439    -3.95696171    -0.21982329     0.13112457    -0.52999179
Ti     -5.83916852     6.65482851    -7.93141464    -1.75758303     0.19626888    -0.51298472
Ti     -7.64457535     4.33782870    -7.67914124    -0.73697078     1.27657840     0.43012177
Ti     -7.87747803     4.42495776    -3.74421500     0.24875903    -1.59247537    -0.76823751
Ti     -3.77455091     4.43002679    -7.82132583    -0.86712642    -1.30708943     1.37764204
Ti     -3.99602105     4.55584523    -3.69720981     0.03624717    -1.62889766    -1.01845377
Ti     -2.17505840     0.04353974    -2.08678229    -0.82367384    -1.21839656     0.06043650
Ni     -5.90382138     2.01916509    -8.02395503     0.79879787    -0.04330598     1.07690897
Ni     -5.84865309     2.43760443    -4.09672807    -0.10759727    -0.12288651     0.07201775
Ni     -9.72326724     6.37902577    -8.05144336    -0.33381501    -0.18126294    -0.42070564
Ni     -9.85836769     6.49721270    -3.95139084     1.56651253     0.37899979     0.03309394
Ni     -1.99255385     2.05970201    -7.95068323     0.18438878     0.98979801    -0.06988166
Ni     -5.91405591     6.67539657    -4.05949942     0.00843374    -0.20199414     0.85694058
Ni     -5.97960281     8.73392101    -6.01297685     0.02733307     0.95070663     0.97239269
Mo     -9.86501277     8.74315717   -10.26037128     1.03614296    -0.01079531    -1.50664605
Mo     -9.82426713     8.66082292    -6.29106160     0.26446851     1.86033501    -1.48040366
O      -1.98713619     2.02572205    -1.97615050     0.26061623    -1.21539627    -0.38216184
O      -2.03766389     1.92141926    -5.96743864     0.41474309    -1.01587401     0.05366283
O      -5.93724713     6.75656462    -2.07067522     0.80549016     0.91767149     0.41267344
O      -5.90993401     6.88522395    -5.91643283     0.22460160     0.39510888    -1.03117450
O      -5.86394418     1.90606598    -9.88028342     0.35628266     0.62054379     0.84572901
O      -6.01709854     1.89936551    -6.11516142     1.33564352     0.15834236    -0.05233161
O      -9.73428305     6.78158092   -10.08440834    -0.87799974    -0.39605529    -0.20159487
O      -9.77106600     6.85442964    -5.80958108    -1.48427541    -1.77279635     0.54853227
O      -3.88839429     2.56660386    -3.93737388    -0.09617005    -0.51728415    -0.46795432
O      -3.92977964     2.32395751    -7.94479665    -0.52812618     0.58802647     0.00495407
O      -7.82192166     2.47527474    -3.93676150     0.02305230    -0.64376476    -0.47867117
O      -7.83884899     2.42150256    -7.96316497    -0.04042883    -0.38770928    -0.29391408
O      -3.87403088     6.34194038    -4.14811964     0.09327614     0.86508249     0.93975139
O      -3.88453330     6.38249655    -7.95875430    -0.46736682     0.89157227    -0.26449776
O      -7.82093618     6.29450897    -3.93185596    -0.66449563     1.28907992    -0.82019463
O      -7.84144984     6.44578501    -7.94135574     0.64780270    -1.39464165     0.10045089
O      -3.99951127     4.36864096    -1.93243366    -0.02636166     0.72275687    -0.12450542
O      -3.87982771     4.42438881    -6.03987301     0.25223465    -0.38679001    -0.71164705
O      -7.78123873     4.44390142    -9.96157749    -0.46331623    -0.64833292     0.23044987
O      -7.76265681     4.38751787    -5.92363659     0.00217373    -0.16710041    -1.20048595
O      -7.92935242     8.63116559   -10.04019058     1.06591081     0.66721453     0.28802688
O      -7.99757218     8.57194881    -5.91033207     0.03207435     1.56827402    -0.44246701
O     -11.58790596     8.60805187    -5.97296429    -1.04618096     0.29727947     0.05480071
O      -7.67780245     0.04638836   -10.05803396    -1.80909809    -0.47341077    -0.00628507
O      -1.93880888     4.29802638    -3.98755375     0.32827386     0.16433090     0.12443234
O      -1.96736287     4.25079545    -0.26246216     0.88302393    -0.10892543     1.08380275
O      -5.84194197     4.37288949    -4.08684417    -0.80270395    -0.70993349     0.18849505
O      -5.84003186     4.67556439    -7.98924308     0.54060696     0.76262557    -0.01233935
O      -2.01824604     0.17815958    -3.94847858     0.40713252     1.13098219    -0.30359888
O      -5.95240293     8.62661922    -7.99111778     0.49584234    -0.52273946    -0.20079179
O      -5.75889829     0.55746886    -3.99986869    -0.38821404    -0.22687818    -0.23382354
O      -9.81284920     8.21122342    -8.14724942     0.26836900     0.48374201     1.47452269
