# total energy = -630.84798898 eV

CRYSTAL
PRIMVEC
        0.00279571     0.02951795    -7.98606283
       -7.83802570     0.01298533    -3.99532603
       -3.92160916     8.71933433     0.00634407
PRIMCOORD
56 1
Li     -3.97403763     2.12285492    -1.93412662     0.09909210     0.30835783     0.01777123
Li     -3.83536936     2.29075224    -5.95711308    -0.43926998    -0.52943293    -0.18303661
Li     -7.85873966     2.52567589   -10.12825485     0.06113292    -0.28059834     0.61039892
Li     -7.92218302     2.24811525    -5.91878784     0.92750670     0.22911322     0.12530101
Li     -3.87866106     6.39780074    -1.80988646    -0.38247292    -0.03942609    -0.38069845
Li     -3.91534043     6.59984676    -5.88839643    -0.03987648    -0.11919857     0.15961115
Li     -7.89098013     6.68451290    -9.95785924     0.89061563    -0.37212110    -0.28775241
Li     -8.06451565     6.45345069    -5.97261306     0.76944840     0.31609388     0.33560323
Ti     -1.97026272     2.29781922    -3.96311604     0.05370020    -0.99134766    -1.22518981
Ti     -5.91705689     6.73129500    -7.93295485     0.24971666    -0.08948330     0.18847708
Ti     -7.70814128     4.39753815    -7.84069614     0.82027807    -0.44168536     0.86855504
Ti     -7.83553454     4.47567245    -3.89543652     0.14238989    -1.28391972     1.12730733
Ti     -3.82202189     4.42577196    -7.72549473     0.33631204    -0.76702294     0.39549805
Ti     -3.91548268     4.38234080    -3.72156180    -0.98856143    -1.14394533    -0.84575437
Ti     -2.11584617     0.05726004    -2.15404688    -0.61084692    -1.97025718    -0.43569533
Ni     -5.75889237     2.16897904    -7.87831616    -1.69502715    -0.09110093    -0.83024560
Ni     -5.82011522     2.30369900    -4.05996495    -0.46129791    -0.21417772    -0.49663839
Ni     -9.77665653     6.36680363    -7.98158297    -0.26871091     0.02557398    -0.66176948
Ni     -9.82452107     6.65298510    -3.91096292     0.56500132     0.28934499     0.92912071
Ni     -1.97677007     2.09674555    -7.99595730     0.52322591     0.25876260     0.10579295
Ni     -5.89443546     6.53031504    -3.99002631    -0.11369606     0.49464745     0.04240506
Ni     -2.00048032     0.03536925    -5.97457596    -0.38596925     0.03548200     0.12058409
Mo     -6.00997349     0.06795752   -10.21808479     0.74164945    -0.56069847    -1.31297805
Mo     -9.93824437     8.70782251    -6.35983303     2.28745094     0.81747532     1.21487309
O      -1.86382262     1.89739787    -2.11879306    -0.72466521     1.59973690     1.74353995
O      -1.94662307     1.91095435    -6.09035135     0.08293883    -0.74232900     0.68180379
O      -5.77492806     6.87417667    -1.96963284    -0.28846656    -0.54068171    -0.34827548
O      -5.94987713     6.84996343    -5.91157283     0.04268604     0.78316216    -0.15199990
O      -5.84253224     1.88985995    -9.79585680    -0.41097964     0.16089441     0.84301898
O      -5.91151717     1.91353685    -6.07020544    -0.17174535     0.67202030     0.70439537
O      -9.64998531     6.78767504   -10.00218574    -1.97906770     0.57349396    -0.88434860
O      -9.89757662     6.84822182    -5.72476891    -0.25800203    -0.54709230    -0.71112658
O      -3.91658415     2.30912467    -3.89525981     0.90689609     1.06706270    -0.69549570
O      -3.99093623     2.40771667    -8.01491143     0.72341699    -0.10516216     0.33849536
O      -7.67530172     2.42079756    -3.99341645    -0.58924670     0.25285038    -0.51679748
O      -7.85460626     2.41004153    -7.93586668     0.70466742     0.61743388    -0.66299912
O      -3.99051262     6.18274609    -4.03981152     0.67645773     1.97745175     0.21097467
O      -3.94146144     6.38079240    -7.78666501     1.07340246     0.22581983    -0.62117459
O      -7.79860775     6.39941287    -3.93173267    -0.47650708    -0.09313868    -0.68632852
O      -7.79725875     6.38126876    -8.06219379    -0.68093852    -0.00151394     0.72260709
O      -3.96207400     4.26621027    -1.99170360     0.27783325     0.32327929     1.15353743
O      -3.71085768     4.17144914    -5.97664497    -0.30208566     0.47157941    -0.71721441
O      -7.82634175     4.45029941   -10.07472790     0.04292241    -0.16510635    -0.13262992
O      -7.80242379     4.44680111    -6.05014035    -0.18368125     0.19403831    -0.71039313
O      -3.99327802     0.02776137    -2.19664191     0.32717367    -0.10170862     1.23005526
O      -4.19824885     0.03934480    -6.03304488     0.16093014    -0.23527512    -0.27917916
O      -7.80763168     0.04784988    -6.12599710    -0.25588008     0.09081529     0.11215956
O     -11.66792323     8.68397518    -9.91364467    -0.52859108    -0.20453834    -0.19330465
O      -9.71284682     4.33056788    -7.99872919    -0.77428078     0.17666528    -0.01414106
O      -1.91049074     3.92396712    -0.16175484    -0.20453924     0.44488343     0.28729864
O      -5.80121461     4.18163893    -4.18508930    -0.61125216     0.00043332     0.41771655
O      -5.80317126     4.72066812    -8.00459548    -0.19929965    -0.01998748     0.05101141
O      -2.12218652     0.32692882    -4.00435739     0.98720941     0.00063321    -1.09161928
O      -5.86313779     8.64922410    -8.02054379    -0.14691169     0.34728725     0.36165312
O      -5.93200940     0.38336974    -4.02581745    -0.41475113    -0.22876052     0.54321854
O      -9.80934863     8.24747064    -8.09749562     0.00563241    -0.88786741    -0.55049937
