# total energy = -630.63081206 eV

CRYSTAL
PRIMVEC
        0.00285542     0.02004370    -7.95977623
       -7.82940539     0.00763210    -3.98158109
       -3.91729101     8.74642787     0.01461334
PRIMCOORD
56 1
Li     -4.00570517     2.27122533    -1.88935153     0.12256186     0.17020340    -0.03896056
Li     -3.93966018     2.08908449    -5.96916045     0.24724496     0.18952036     0.16682599
Li     -7.84019616     2.25183756    -9.96262752    -0.31615977     0.23789215     0.12477527
Li     -7.73168683     2.28897651    -5.89023938    -0.16671687    -0.06807947     0.18621385
Li     -3.80303188     6.46026837    -1.93540100    -0.17549432     0.00652787     0.03535239
Li     -3.91239170     6.47119378    -5.87489702    -0.27120423    -0.13801156     0.10550438
Li     -7.96397395     6.50917927    -9.91934983     0.19829046    -0.23960345     0.12414301
Li     -7.85401301     6.68902076    -5.85481059     0.20130026    -0.27057696     0.07645872
Ti     -1.93930663     2.28843548    -3.84593574    -0.11360099    -0.56933433    -0.62853340
Ti     -5.86678888     6.54417913    -8.07908270     0.58137623     1.90433427     0.28493284
Ti     -7.77102715     4.40473555    -7.69071721    -0.50820071     0.16805575    -0.60457943
Ti     -7.80274875     4.39080310    -3.71799825    -0.09028966    -0.27027363    -0.11190845
Ti     -3.86012859     4.35379062    -7.66291612     0.56563681     0.32141934    -0.26410356
Ti     -3.95532176     4.41092430    -3.72341709    -0.27525065    -0.11489029    -0.54755104
Ti     -6.16209610     8.71288599    -2.11712158     0.42305400     0.17308223     1.30138153
Ni     -5.86783033     2.22093699    -7.90767445     0.10936022    -0.28247748    -1.06672854
Ni     -5.85724824     2.32851674    -3.95413438     0.08958915    -0.79880597    -1.31272626
Ni     -9.78616483     6.61026015    -7.86018639    -0.02125503     0.06190118    -0.45130271
Ni     -9.77067121     6.39179700    -3.95707224    -0.16060408     0.82002581    -0.50023244
Ni     -1.89818620     2.19681755    -7.95899723    -0.53902410    -0.29321147    -0.49336071
Ni     -5.91185206     6.57617135    -3.93718863     0.53622495    -0.12980807    -0.15657587
Ni     -5.89096014     8.70153559    -5.92427849    -0.32846508     0.42664399    -0.55448976
Mo     -6.05348430     0.02800996   -10.23575922    -0.33252398    -0.27478049    -0.12003948
Mo     -9.75276009     8.75503223    -6.37815578    -0.95512901    -0.91385757     0.51331608
O      -1.94169183     2.01553007    -1.98697826    -0.03946846    -0.67527110     0.61940336
O      -2.03403540     1.80581443    -6.21105339     0.62727840    -0.16743097     1.28033795
O      -5.83665777     6.75960068    -2.04761517    -0.28730621     0.17626251    -0.06864811
O      -5.93123732     6.82888326    -5.73509391     0.39583856     0.71884380    -1.10953378
O      -5.90938877     2.00080823    -9.93274345     0.16232028    -0.25570584    -0.21510235
O      -5.84805443     2.06130164    -6.01787986     0.10680687    -0.78632807     0.27311631
O      -9.80663463     6.86942209    -9.88727681    -0.02170189     0.53628089     0.11574835
O      -9.75498907     6.71837064    -6.01202528     0.07129005     1.06991477     0.22093898
O      -3.91973110     2.42929983    -3.97450270     0.02466736    -0.05580228     0.35569745
O      -3.94938136     2.46364778    -7.94145051     0.25306854    -0.32762361     0.01855707
O      -7.81226966     2.41152536    -3.95593880    -0.02844075     0.21087530     0.01174217
O      -7.80180475     2.42155267    -7.96184140     0.13821634     0.13100718     0.35386608
O      -3.86345968     6.34886855    -3.94027049    -0.18920295     0.21032428     0.29343970
O      -3.88391223     6.37296056    -7.88414089    -0.35231370    -0.23032840    -0.24310935
O      -7.83744352     6.34694545    -3.91133800    -0.00247421    -0.09903866     0.10245656
O      -7.83619682     6.41201496    -7.91710515    -0.05482872    -0.44872680    -0.04760528
O      -3.91782945     4.39218110    -1.94414637    -0.20086064     0.02397001    -1.12219591
O      -3.85655367     4.45019740    -5.90324132     0.00439803     0.01610375    -1.02623931
O      -7.89839486     4.36653105    -9.88966305     0.27751973     0.22125570    -1.26774239
O      -7.87264222     4.36666521    -5.94391607    -0.00769077    -0.08098944    -0.83619576
O      -4.01606212     0.05396435    -9.91029418     0.68339531    -0.13533620    -0.55750090
O      -4.10726091     0.02115061    -5.91218126     1.43486787    -0.17565134    -0.44045136
O      -7.52776838     0.01827497    -5.84085386    -0.41919384    -0.01700901    -0.73470432
O     -11.73111750     8.76919255   -10.02670731     0.01264862    -0.05975771    -0.36313836
O      -1.95231924     4.09002898    -4.24596852    -0.02357509     1.00725871     1.41923382
O      -9.76858194     4.56464682    -4.24774028    -0.16547363    -0.62041244     1.64999619
O      -5.88042819     4.16026808    -4.31177159     0.11161814     0.44351209     2.03103074
O      -5.87387794     4.63712393    -8.13552538     0.17584129    -0.80794442     1.07381788
O      -1.90730247     0.35423640    -3.95232575    -0.12502343    -0.60433176    -0.52780828
O      -5.81913027     8.43892847    -8.09692738    -0.31285381    -0.03730399     0.30054877
O      -5.68521953     0.08130658    -4.02387650    -0.73175586     0.44845031     0.76371815
O      -5.83339323     0.26511900    -8.24165376    -0.34386849     0.31768973     1.64907648
