# total energy = -630.55054625 eV

CRYSTAL
PRIMVEC
        0.00285542     0.02004370    -7.95977623
       -7.82940539     0.00763210    -3.98158109
       -3.91729101     8.74642787     0.01461334
PRIMCOORD
56 1
Li     -3.95476534     2.29744153    -1.96625704    -0.07019628    -0.06050884     0.06009834
Li     -3.87900852     2.23443106    -5.97422205    -0.21963119    -0.27675027     0.39129467
Li     -7.97706419     2.09045162    -9.99329414     0.64628044     0.20569963    -0.00857878
Li     -7.80909019     2.29906491    -5.90456475     0.15327804    -0.40591212    -0.25220610
Li     -3.80622226     6.56677677    -2.03671316    -0.52788926     0.05205412     0.59863521
Li     -3.93435445     6.53474570    -5.81012340    -0.03312406    -0.05059395    -0.63380849
Li     -7.92962703     6.46879672    -9.97298094     0.34843083     0.03955031     0.57643272
Li     -7.72865573     6.52657826    -5.83643378    -0.42854747     0.16282929     0.00043518
Ti     -1.97436922     2.29301147    -3.92026633    -1.09340479    -1.19208298    -0.38267410
Ti     -5.85659636     6.62466922    -7.94283147    -0.06863486     0.16545649    -0.23238662
Ti     -7.89950937     4.37965970    -7.61443835     0.67622920     0.80841917    -2.30435862
Ti     -7.80506351     4.38098817    -3.64926576    -0.52508237    -0.37533193     0.12288002
Ti     -3.89693561     4.25063638    -7.62775688     0.70670268     1.97376671    -0.27701251
Ti     -4.03056408     4.50868094    -3.70171221    -0.31334923    -1.09826143    -0.57270168
Ti     -5.89862610     8.68568809    -2.21019117     0.21369799    -0.55966053    -0.00869180
Ni     -5.90607340     2.45969632    -7.97256490    -0.30814260    -0.22547743    -0.64808019
Ni     -5.93245588     2.29244664    -3.86610264    -0.03270683    -0.19666956    -1.75357683
Ni     -9.82230527     6.51621991    -7.89678500     0.58999112     0.51902925    -0.29508071
Ni     -9.78080554     6.36975629    -4.00123840    -0.22377432     1.02009753    -0.28886142
Ni     -1.92148567     2.01254082    -7.98879890    -0.63961468     0.54502707    -0.34643520
Ni     -5.86836870     6.67049389    -3.95490713    -0.49855059    -0.93199432    -0.62371801
Ni     -1.98459391     0.04118566    -6.02674845    -0.05244982    -0.41223605    -0.36585830
Mo     -9.79661873     8.70922740   -10.30313736    -0.29997565     1.58833134     1.82258876
Mo     -5.82805087     0.02080093    -6.32935776     0.04863133     0.20466880     0.09059005
O      -1.90799189     1.90931858    -1.94012023    -0.70539183    -0.07710001    -1.11987616
O      -2.01741835     1.88329213    -6.15091906    -0.03296160    -0.16206120     0.68576549
O      -5.95570936     6.72219350    -2.06210633     0.42820035     1.06146049     0.32187599
O      -5.87224894     6.95632362    -5.92999720     0.16535995    -0.45819478     0.52891357
O      -5.91287449     1.95359854   -10.05991889     0.58614883     0.32493895     0.68355664
O      -5.78295698     1.82083482    -5.77896584    -1.02011945     0.85828398     0.50995609
O      -9.83214945     6.79393233    -9.90383053     0.15543420     0.38656128     1.19648466
O      -9.72122596     6.88834249    -5.95649370    -0.72843260    -1.48871131    -0.87676821
O      -4.03012528     2.54735697    -3.97567898     0.69607946    -0.75884853     0.38641830
O      -3.89370091     2.40674802    -8.02960814    -0.09900434     0.07744157     0.76809366
O      -7.93832041     2.36008348    -4.12530706     1.41883651     1.04497184     1.86333169
O      -7.96901847     2.39142443    -8.05583914     1.67995416     0.69602870     1.12637103
O      -3.91840914     6.41391145    -3.97136826     0.70219063     0.66284172     0.51982606
O      -4.04530945     6.37295232    -7.99659034     1.60164265    -0.88893947     0.41821799
O      -7.85431604     6.37398078    -3.90646909     0.30931487    -0.69459063    -0.26046643
O      -7.81964802     6.30510103    -7.95688595    -0.92099843    -0.02736310     0.44745730
O      -3.92375930     4.45814062    -1.95832733     0.24058689     0.01058012     0.45249297
O      -3.74885172     4.51205529    -5.88068860    -0.21818261    -0.53466974    -0.80488434
O      -7.78836159     4.36312349    -9.83791668    -0.04173290    -0.13702557    -1.02393609
O      -7.90981010     4.41873337    -5.90982054     0.10154292    -0.27045870     1.11329291
O      -7.83930917     8.73367211    -2.12287824    -0.75393106     0.28055354     0.52870777
O      -7.94631032     8.66545836    -5.92579699    -0.39193990     0.40934706    -0.92730646
O     -11.72602098     8.72346921    -6.11671948     1.05672991    -0.31014161     0.39709711
O      -7.66384166     0.15858251   -10.06759981     0.04803015    -0.89781530    -0.13866497
O      -1.97728484     4.13992362    -4.00164230    -0.37471279     0.80248319     0.38434533
O      -9.75674845     4.58364562    -4.00632184    -0.39353617    -0.76013723     0.12006130
O      -5.90884361     4.55967681    -4.02969329    -0.18790295    -0.10297352    -0.00606889
O      -5.85030582     4.40518623    -7.72432566    -0.39309411    -0.77769618    -0.64463588
O      -1.93055203     0.29364552    -4.12463609    -0.28569171     0.08077466     1.03840434
O      -5.84892504     8.44025652    -7.96949570    -0.37092856     0.76221586    -0.41683312
O      -9.66874542     8.31106946    -4.01797619    -0.67032065    -0.44734771    -1.85644091
O      -5.94850082     0.61685082    -8.05095386     0.62215589    -0.51606676    -0.08923650
