# total energy = -630.30825170 eV

CRYSTAL
PRIMVEC
        0.00279571     0.02951795    -7.98606283
       -7.83802570     0.01298533    -3.99532603
       -3.92160916     8.71933433     0.00634407
PRIMCOORD
56 1
Li     -3.89491014     2.19559605    -1.97992506    -0.34134628     0.70059082     0.42007176
Li     -3.86986121     2.34153958    -5.86170036    -0.42475144    -0.20923151    -0.75487467
Li     -7.82877626     2.19002700   -10.01877037    -0.00631228     0.02328755     0.55170145
Li     -7.83451289     2.07629670    -5.81216176    -0.49438523     0.27224892    -0.58463931
Li     -3.98500578     6.59823501    -1.79945037     0.37488979    -0.25532095    -0.75728716
Li     -3.74112347     6.77299829    -5.92774477    -1.16641224    -0.12474765    -0.33711802
Li     -7.65555832     6.29667004   -10.08812099    -1.24656091     0.60447778     0.55026108
Li     -7.88466982     6.51105282    -5.99179693    -0.11374657    -0.11790770     0.53011887
Ti     -2.04018733     2.21757957    -4.01443324     0.68568501     0.73048207     0.50195303
Ti     -6.02060857     6.65105330    -7.93852798     2.38405056    -0.26995649     0.37003748
Ti     -7.73399500     4.31921076    -7.77051127    -0.32251674    -1.68550309     0.35045518
Ti     -7.81624514     4.36877430    -3.66352855    -2.01851367     0.46092176    -1.75034200
Ti     -3.94270972     4.42042260    -7.62946042     0.05579998     0.72480766    -1.38092539
Ti     -4.16729451     4.45705406    -3.79100540     2.42531807    -0.74339976     1.79848900
Ti     -1.91253390     0.04972748    -2.05945875     0.85568521    -1.03349715     0.07955918
Ni     -5.81004341     2.10419286    -7.90452333    -0.94996498     0.07049782    -0.51890735
Ni     -6.00861153     2.33396556    -3.95525872     1.27437921    -0.68520521    -0.84234171
Ni     -9.86707588     6.31616145    -8.23795547     0.55874672    -0.06165051     1.66664126
Ni     -9.78359486     6.44636015    -4.01288195    -0.34506988     0.05467030     0.42283237
Ni     -2.02798106     2.33464056    -7.86828052     0.39308351    -0.08175406    -0.63324636
Ni     -5.87113412     6.50268381    -4.07879344    -0.38756637     1.29177786     0.56632606
Ni     -1.86593037     0.08050670    -6.09687478    -0.00587298    -1.44674527     1.42331594
Mo     -5.85024477     0.13982333   -10.29925107    -1.08473328    -0.78167840    -0.37836009
Mo     -5.83706821     0.07468203    -6.30056983     1.21750294    -2.07412471    -1.13071882
O      -1.99295847     1.98297437    -1.99041080    -0.33395205    -0.17233551     0.15021192
O      -1.87572836     1.85613293    -5.98548287    -0.60053245     0.90792402    -0.57982845
O      -5.96663320     6.75089693    -2.11802687     0.78634728     0.74210768     0.58303538
O      -5.79125335     6.93783569    -5.93000074    -0.73128152    -0.23215181    -1.03276316
O      -5.92577113     1.98671815    -9.79305894     0.93798195    -0.30787684     0.23884997
O      -5.95700971     1.97442759    -6.08589308     0.11535034     0.03931190     0.70027222
O      -9.76303774     6.75781039   -10.10266798     0.37734581     0.40734768    -0.96919368
O      -9.79548952     6.86178258    -5.84553400    -0.44756891     0.62169091     0.04784796
O      -4.05442522     2.45535916    -4.04324405     0.91049897    -0.72415179     0.89353184
O      -3.93415092     2.43037370    -7.84006063    -0.16692181    -0.00089471    -0.52390313
O      -7.87161728     2.46842095    -3.99860683    -0.83432600    -0.43307218     0.52029660
O      -7.83720390     2.28958088    -8.01692634     0.06748162     0.98781304     0.62513348
O      -3.93992626     6.30212003    -4.07999337    -0.09736813     0.37183579     0.04186101
O      -3.95677771     6.43707744    -7.93412340     0.57645545    -0.98559495     0.37767063
O      -7.86398290     6.34172213    -4.01924652     0.19828490    -0.72217358     0.07934075
O      -7.84969814     6.27028988    -7.94023031    -0.77625554     0.61295292    -0.72575404
O      -3.81894938     4.37874611    -2.01917955    -0.52609255    -0.14136078    -1.15179594
O      -3.81146884     4.29640941    -5.89579166    -0.45057061     0.32257281     0.42854462
O      -7.64533478     4.36799937    -9.92128578    -0.41670906     0.08999811     0.34743901
O      -7.71354404     4.43616176    -6.02935287    -0.17400762    -0.19465068    -0.19845241
O      -8.03455856     8.72281746    -9.89430888     0.94766887     0.55213153    -0.14877934
O      -4.04552101     0.07964381    -6.14908164    -1.08655826     0.16089267     0.01402863
O      -3.99934329     8.68155574    -1.95571207     0.86307840     0.60610350    -0.29248391
O     -11.57788603     8.72454268    -9.93729829    -0.05059738     0.24966329    -0.46565268
O      -1.95373855     4.16995401    -4.11759998     0.58191911     0.70187396     0.17554927
O      -2.01177894     4.31645963    -7.94488570     1.39950567     0.29230655    -0.00346605
O      -5.96861338     4.22909375    -4.07581901    -0.51807650    -0.35122834    -0.02386713
O      -5.77260259     4.59143403    -8.11575012    -1.41250860     0.42406701     0.77475107
O      -2.01548778     0.28873562    -3.91427746    -0.41024693     0.07096242    -0.96748482
O      -5.87680853     8.49289121    -7.98417422    -0.45965667     0.52376685    -0.54478418
O      -5.92369371     0.39223991    -4.13839412     0.08610127    -0.07196872     0.66890002
O      -9.94467143     8.14516168    -8.06570203     0.39852160     0.41418171     0.86858534
