# total energy = -630.43063055 eV

CRYSTAL
PRIMVEC
        0.00279571     0.02951795    -7.98606283
       -7.83802570     0.01298533    -3.99532603
       -3.92160916     8.71933433     0.00634407
PRIMCOORD
56 1
Li     -3.90936369     2.33772832    -2.02534785    -0.35310864    -0.26519516     0.41939500
Li     -3.84530480     2.22854319    -5.95651641    -0.36722876     0.14111656     0.12486722
Li     -7.88714499     2.16700025   -10.08411000     0.27221381     0.49730041     0.17612194
Li     -7.83417326     2.31574877    -5.88748429     0.58581541     0.05753486    -0.33476697
Li     -3.91600564     6.25697075    -1.95551976    -0.28828344     0.47446286    -0.08524486
Li     -4.06382037     6.58326754    -5.86199275     0.58811613    -0.34171276    -0.02670149
Li     -7.92881915     6.29025400   -10.00092211     0.19553266     0.28935676     0.21942049
Li     -7.80209207     6.56504483    -5.90357083    -0.29229211    -0.23925194    -0.10830651
Ti     -1.82829767     2.24607718    -3.95870030    -0.65293531     0.08759083    -0.33288367
Ti     -5.88450790     6.76990480    -7.91892696    -0.38785619     1.39738689    -0.66703826
Ti     -7.62366968     4.32904714    -7.76731744    -0.50535534     0.71685299     1.87631045
Ti     -7.84717778     4.35993408    -3.83257033     0.08472439     0.39108150    -0.57357379
Ti     -3.81976654     4.36975159    -7.74484338     0.22726429    -0.29743058     1.05154258
Ti     -4.00844285     4.32071754    -3.80830809    -0.22104216     0.18296099     0.04679917
Ti     -2.16016470     0.09479812    -2.14738911    -1.38892953    -1.91813239     1.69605006
Ni     -5.75456087     2.20432022    -8.07687289    -1.10146968     1.61885128     0.96298549
Ni     -5.95169224     2.16709690    -4.01079708     1.05687541    -0.12962088     0.71687651
Ni     -9.85621927     6.48180721    -7.90547436     1.12852732     0.49881091     0.36455995
Ni     -9.77000531     6.60443898    -4.12814402    -0.29566178    -1.31500431     1.08663415
Ni     -1.94481771     2.19176037    -7.99001420    -0.04248966    -0.21258641     0.51166300
Ni     -5.90223421     6.66572114    -3.97051988     0.00711343    -0.06786308     0.40715292
Ni     -2.04620808     0.13232968    -5.89218655     0.17737990    -2.54341789    -0.31278071
Mo     -9.98696443     8.69670378   -10.20756562     2.89099817     0.50402139     0.10954760
Mo     -9.82067230     8.70198911    -6.35628458    -1.01132432     0.49827133    -0.79665631
O      -1.90221015     1.97667146    -1.90048340     0.03288728    -0.29851384    -0.75221514
O      -1.90811419     1.90668122    -5.86577269    -0.51622017     0.40528049    -1.03023181
O      -5.96954825     6.77687185    -2.04664706     0.26877753     0.45634275     0.73449455
O      -5.92549383     6.93076585    -5.87432335     0.28867733     0.36218473    -0.55620324
O      -5.99576821     2.00781060    -9.95383145     0.51638849    -0.14356025    -1.76709314
O      -5.79165925     2.06599423    -5.88023306    -0.61974760    -2.00285083    -1.08448258
O      -9.78895906     6.88656702    -9.78751744    -0.22946960     0.22611765     0.11763801
O      -9.88230559     6.79681866    -5.99809987     0.74756771    -0.52489180    -0.65463442
O      -3.88991681     2.35414913    -3.94785499     0.47387713     0.17738047    -0.24598049
O      -3.92397693     2.40665469    -7.96819934     1.42585789     0.29318695    -0.15701943
O      -7.81751625     2.38776118    -4.06768734    -1.05505736    -0.14263075     0.72606466
O      -7.68752358     2.41847191    -7.92556469    -0.45013886    -1.00339387    -0.19578854
O      -3.82503821     6.34542194    -3.97306665    -1.24566710    -0.99534052     0.02685589
O      -3.99331452     6.37648817    -7.89864093    -0.16968006    -0.11984915    -0.19440963
O      -7.84125791     6.38900299    -4.00749587     0.17401347    -0.35788122     0.25831029
O      -7.79411255     6.28393857    -7.97447108    -0.04248829     0.05961578     0.03301424
O      -3.82829969     4.31974969    -2.03742373     0.10350087     0.21604850    -0.33934590
O      -3.71775264     4.30922879    -5.94983579    -0.16783698     0.31606067    -0.60650324
O      -8.04303846     4.36464023   -10.07989468     0.33770123     0.04595264     0.92219805
O      -7.73270777     4.45239925    -5.94952460    -0.17627804    -0.25017487    -1.78998102
O      -4.08174337     0.22137863    -2.18486036     1.10759892    -0.61735264     0.33163737
O      -8.00577386     8.60551658    -6.05120176    -0.54993717     0.59218881     0.20354445
O     -11.66645766     8.57276839    -6.16785187     0.95609739     1.23193377     0.28899648
O      -7.76416612     0.12341591    -9.98537586    -2.37456443    -0.38644915     0.28094097
O      -9.61922938     4.03976475    -8.00255114    -1.02465720     1.02731440     0.26428168
O      -9.80430202     4.62367893    -4.18787151     0.38230670     0.45377805     0.16912237
O      -5.88660327     4.04398684    -3.89484150     0.02623165     0.62012709    -0.45381050
O      -5.76114897     4.27642175    -8.01848267    -0.15533429     0.13278980    -0.26361628
O      -1.90471100     0.11728905    -3.91331164     0.06695662     1.10049948    -1.39811169
O      -5.98156500     8.61260049    -7.95785976     0.37615656    -0.87799514    -0.25165725
O     -10.02976793     8.64805947    -4.02612901     0.71105897     0.29459898    -1.25149577
O      -5.85930537     0.44127449    -8.21049581     0.46536288    -0.58271580     2.10080331
