# total energy = -630.52298873 eV

CRYSTAL
PRIMVEC
        0.00285542     0.02004370    -7.95977623
       -7.82940539     0.00763210    -3.98158109
       -3.91729101     8.74642787     0.01461334
PRIMCOORD
56 1
Li     -3.90579392     2.12889117    -1.88542675    -0.38731068     0.13818902    -0.36143874
Li     -3.94495675     1.96220646    -6.19443038     0.20492930     0.54057061     0.70737910
Li     -7.88179341     2.55035661   -10.00356443    -0.09156225    -0.41706483     0.52705326
Li     -7.97079118     2.39934894    -5.88481884     0.63383535    -0.57439052     0.31201742
Li     -3.83423877     6.63225058    -1.88781732    -0.38593695     0.10809053    -0.10946455
Li     -3.72965078     6.27696871    -5.87236193    -0.19695528     0.32524693    -0.04905384
Li     -7.64523708     6.52291457    -9.86417762    -0.94951101    -0.34738809    -0.00300228
Li     -7.92159648     6.71515292    -5.89442525     0.50290293     0.06872941    -0.10957544
Ti     -2.07812475     2.23406209    -3.94768959    -0.04102980    -0.95481221    -0.51122889
Ti     -5.74371683     6.46693247    -7.76294460    -0.58732049     1.69725935    -0.68363461
Ti     -7.84326020     4.28461889    -7.60340644     0.72952587     2.01281545    -2.17392418
Ti     -7.77144674     4.42037692    -3.75894066     0.17654241    -0.37476244     0.36465932
Ti     -3.68660082     4.33509001    -7.81616301    -0.25794448     0.39823314     1.96378809
Ti     -4.00033268     4.48164866    -3.70044161    -0.40808802    -1.37536390     0.51976405
Ti     -6.10106802     8.72298100    -2.08912489     0.52754327    -0.74031087     0.50564732
Ni     -5.85332714     2.54054443    -8.14682186    -0.10961428    -0.90526584     0.16074622
Ni     -5.96455599     2.04785115    -4.04783120     0.35845874     0.81568790     0.30734954
Ni     -9.83121291     6.47879254    -7.78344199     1.55778112     0.78896761    -1.11696525
Ni     -9.69658212     6.47526354    -3.96441302    -0.12015951     2.11537818    -0.53684009
Ni     -1.94960939     2.06595663    -7.89975198     0.09963926     0.09264930    -0.38500993
Ni     -5.84577320     6.53927142    -4.05172255     0.14606929     0.03636137     1.17116650
Ni     -1.99890059     0.07971870    -5.93681460     0.20227423    -1.68557569    -0.12790712
Mo     -9.96811160     8.73874980   -10.19431062    -0.14411988     0.88428582    -0.08536855
Mo     -5.89866214     0.13141490    -6.43476921     0.01774267    -1.18023431    -0.35289218
O      -1.94739859     1.96702947    -1.92031688    -0.26384135    -0.94152927    -0.11809186
O      -2.01877659     1.93428909    -5.96060865     0.18692711    -0.50802001    -0.42005627
O      -5.82910371     6.78021221    -2.09173166     0.18682056     0.81704050     0.44427148
O      -5.85476050     6.88844602    -5.90083784    -0.18347857     0.24240037     0.33712858
O      -6.05273531     1.98092548   -10.18297140     1.18725460     0.11340474     0.47054873
O      -5.79144355     1.95373199    -5.87701546    -0.92672391    -0.00630703    -0.11217787
O      -9.71888641     6.98406282    -9.74023275     0.20553949    -1.44728848     1.15589838
O      -9.76852797     6.89839004    -5.98620251    -0.24724882    -0.11604258    -0.02488720
O      -3.97184735     2.40890211    -3.89018807     0.53351008    -0.18763222    -0.30319164
O      -3.89976919     2.46881403    -7.99902418     0.05029657    -0.52055135    -0.20371798
O      -7.90745449     2.34222400    -3.93209025     0.11488823     0.64226871    -0.40277621
O      -7.81146488     2.38777321    -8.00296399     0.14267156     0.99026672     0.33589284
O      -3.85352671     6.37452954    -3.95625354    -0.30927909    -0.38371487     0.12401999
O      -3.84326381     6.44840551    -7.89971631    -0.24258976    -0.83982349     0.12913711
O      -7.77060903     6.37825239    -3.94763039     0.07214953     0.01149407    -0.35810083
O      -7.89770661     6.30561697    -7.94461873     0.54825281    -0.90902509     0.96103860
O      -3.93971021     4.40830233    -1.90795699    -0.14915044     0.31337230    -1.35078384
O      -3.87512603     4.38531529    -6.00523564     0.51645867     0.14119575    -0.40666636
O      -7.76443098     4.49883066    -9.95787180    -0.31463280    -0.58982722     0.19417895
O      -7.90916096     4.35782133    -5.89714281     0.42412395    -0.07581493     0.88472099
O      -3.97773166     0.05514936    -2.08936394     0.58431862     0.24560043     0.34083378
O      -7.96284460     8.73548070    -6.13597361    -0.34805732     0.25602024     0.31483845
O     -11.58372964     8.73207168    -6.09347786     0.27412292     0.28402988     0.20131455
O     -11.66057586     8.67740468    -9.88798568    -1.29451299     0.18222084    -0.44813676
O      -1.91167743     4.07550508    -3.84600900    -1.36056834     0.77528361    -0.56883081
O      -9.69923442     4.67981119    -4.06012997     0.16562171    -0.47193609     0.07181817
O      -5.88525260     4.33261489    -4.07088593     0.81624068     0.22584297     0.02871905
O      -5.74910512     4.52444175    -7.88832963    -1.44162340    -0.93783306    -0.26829880
O      -1.84053896     0.19915244    -3.94992317    -0.59917908     0.69680558    -0.44974652
O      -5.89050875     8.38331874    -7.82104789     0.11062515     0.37161468    -1.26358091
O      -9.75541616     8.40670017    -3.99961191    -0.09520075     0.38841752    -0.69361810
O      -5.88405118     0.64119007    -8.23511291     0.46298965     0.50864642     1.47815471
