# total energy = -630.31601452 eV

CRYSTAL
PRIMVEC
        0.00285542     0.02004370    -7.95977623
       -7.82940539     0.00763210    -3.98158109
       -3.91729101     8.74642787     0.01461334
PRIMCOORD
56 1
Li     -3.90151980     2.20322080    -1.95113998    -0.29365198     0.04615734     0.24513246
Li     -3.97708026     2.22445878    -5.98840915    -0.12256203    -0.35242988     0.21653983
Li     -7.96084347     2.24530577   -10.06075838     0.21613217     0.27973967    -0.02380967
Li     -7.78493947     1.83141238    -5.78165276    -0.91139892     0.45552135    -0.01848936
Li     -3.97685356     6.71122564    -1.98559994     0.43022201    -0.21630344     0.40248107
Li     -4.00716550     6.59986145    -5.82240041     0.61460378    -0.10089801     0.31471738
Li     -7.98558102     6.43876256    -9.89548428     0.30829970     0.08546523    -0.03430607
Li     -7.77194474     6.52333634    -5.97935136    -0.08087629     0.23067968     0.54178975
Ti     -1.82218435     1.98961984    -4.00720500    -0.91864151    -0.25173399    -0.24175413
Ti     -5.76394890     6.41325352    -7.92542671    -0.61989681     0.66630553    -0.06018574
Ti     -7.98175454     4.38265620    -7.73708372     1.23517722     0.08590360     0.72915532
Ti     -7.72194726     4.43140425    -3.73126229    -0.34753293    -0.32169893     0.37897527
Ti     -3.67959234     4.40745148    -7.54663926    -0.36180790    -0.45643691    -1.55139773
Ti     -3.91600826     4.24116063    -3.62085879     0.08790096     0.79687819    -1.74166593
Ti     -6.16792300     8.74270473    -1.90291401    -0.28135181     0.12298558     0.17528818
Ni     -5.86606497     2.47719606    -7.97356247     0.05988022    -0.96622110    -0.46873241
Ni     -5.81472302     2.14109223    -4.07053527    -1.15052586    -0.19637094     0.41750648
Ni     -9.77432663     6.59780767    -7.84366730    -0.73981856    -0.23144566    -0.00341396
Ni     -9.79637548     6.51027643    -4.01197241     1.26194886     1.88875154    -0.06091315
Ni     -1.98207677     2.26011504    -8.04627878    -0.56358136    -0.78862123     0.89909858
Ni     -5.77563997     6.58497971    -3.86693707    -0.92243641     0.21126309    -0.69816943
Ni     -2.04356601     0.01748706    -6.11104739    -0.18831316    -0.56888616    -0.23794389
Mo     -6.03503697     0.11411797   -10.21210498    -0.09789021    -0.78024716    -1.51633990
Mo     -9.83744159     8.67863193    -6.38386263     2.06747022     0.17081311     0.74615833
O      -1.96471234     1.96744853    -1.97208313     0.46895571    -0.50000129    -0.93404586
O      -2.05733295     1.82242902    -6.15554649     0.14654375     0.54759251     0.92502217
O      -5.87120752     6.83948021    -1.90454251     0.04791520    -0.65141499    -0.55347887
O      -5.82774529     6.94036866    -6.03384833    -0.63423120    -0.52604568     0.23314791
O      -5.96833361     1.99627600   -10.01845875     0.65403821     0.59548558    -0.86357725
O      -6.04526635     1.99679103    -5.95969209     2.25908183    -0.24400485     0.38581348
O      -9.80951000     7.06840383    -9.63700237    -0.26287662    -0.55277120    -0.25340102
O      -9.83476470     6.80757491    -6.00093241     0.43328345    -0.71864499     0.18052747
O      -3.84552731     2.29075344    -3.91711680    -0.61435720     0.38961692    -0.52662688
O      -3.90156248     2.50634083    -7.98212444    -0.16386979     0.63391549     0.83532516
O      -8.00665074     2.42383711    -3.98198300     1.74880406     0.97956041    -0.14054702
O      -7.79441530     2.32513842    -8.07789604    -0.08122086     0.55787452     0.72872425
O      -3.86273814     6.28357403    -3.78070713     0.72342665     0.22611910    -0.88884682
O      -3.82840574     6.44724471    -7.88597091    -1.10175609    -0.90617598    -0.27394207
O      -7.88202637     6.42495180    -3.91634808     0.49317316    -0.54386708     0.11385383
O      -7.80225853     6.32000323    -7.99807404    -0.48895133    -0.00548113     0.55600939
O      -3.80848561     4.27806179    -1.90574398    -0.24950474     0.22161578     0.37194423
O      -4.01593064     4.52523603    -5.84433992     0.51339088    -0.37947128    -0.08234655
O      -7.88421048     4.39868809    -9.88131501     0.60374816     0.17693509    -1.53032900
O      -7.81581024     4.58461536    -5.96392304    -0.44799955    -0.68825179    -1.10228357
O      -4.04702858     0.09107647    -9.97234285     0.35719891     0.23634929    -0.03820245
O      -8.02177393     8.67879118    -6.00321495     0.45905667     0.47390344    -0.43872559
O     -11.59884301     8.67950650    -6.10217488    -1.09268464     0.27078237     0.53578461
O      -3.90536571     8.71641063    -6.26290922     0.13180019     0.77624824     0.93731075
O      -1.91879671     3.96071228    -4.23908089    -1.25374861     0.13474678     1.37124996
O      -9.69625149     4.74262571    -4.01325338    -0.45439450    -1.47053613     0.47234950
O      -5.84454235     4.65584742    -4.03819716     0.39423734    -0.23407516     0.89543649
O      -5.82403657     4.48454682    -7.98928268     0.00503819    -0.28562306     0.23822965
O      -1.89720501     0.03618295    -3.87627031     0.16617750     0.64953678    -0.81581842
O      -5.90373505     8.48361394    -8.03985652    -0.06069619    -0.33917352     0.58206484
O      -9.67650962     8.62396507    -4.08240265    -0.73390843    -0.04605151     1.38967235
O      -5.79800103     0.53429804    -8.10683487    -0.50998330     1.21713362    -0.64708218
