# total energy = -631.08070783 eV

CRYSTAL
PRIMVEC
        0.00279571     0.02951795    -7.98606283
       -7.83802570     0.01298533    -3.99532603
       -3.92160916     8.71933433     0.00634407
PRIMCOORD
56 1
Li     -4.09684187     2.29862207    -2.00589273     1.08418558     0.13405814     0.41669923
Li     -3.87730634     2.22813693    -6.05069285    -0.70412723    -0.12509660    -0.11842722
Li     -7.84068840     2.06118382   -10.16962158    -0.01582550    -0.01359159     0.75905750
Li     -7.81897619     2.34314135    -5.96405648     0.25844241    -0.08845284     0.16333625
Li     -4.04828495     6.46099381    -1.95518767     0.55739201    -0.21926349     0.00404966
Li     -3.96742299     6.35345875    -5.76774151     0.15414058     0.35334094    -0.58047520
Li     -7.91325368     6.39707003    -9.88748254     0.03913576     0.37736290    -0.35399064
Li     -7.81055324     6.47709741    -6.02839090    -0.06981289     0.33444403     0.77567290
Ti     -2.03292807     2.36758817    -4.08561477     1.49670192    -0.59803689     0.40327093
Ti     -5.83803373     6.77003608    -7.93761839     0.50780357     0.12074859     0.02184524
Ti     -7.78975645     4.50566644    -7.71882904     0.25837468    -1.53859232    -1.39450792
Ti     -7.83416588     4.39748344    -3.71032806     0.28126174    -0.10510442    -0.56072105
Ti     -3.81774375     4.41444118    -7.68634095    -0.52031508     0.02881433    -0.11766307
Ti     -4.08678254     4.42111652    -3.75026478     0.80068259     0.13102249    -0.16661260
Ti     -1.84204889     0.02854959    -2.19781915    -0.22705100    -0.23757635     0.70657476
Ni     -5.94167038     2.42129756    -8.02668575     0.64776371    -0.32147093     0.15144522
Ni     -5.87813625     1.97513776    -3.96912839     0.33412675    -0.13182479    -1.93619252
Ni     -9.95099881     6.57363324    -7.98124959     0.70212321     0.08558226     0.29414167
Ni     -9.76969669     6.39112015    -4.03276255     0.14458691     0.33637751    -0.34693260
Ni     -1.97249249     2.25149827    -8.03715817    -0.34810924    -0.04378804     0.03395765
Ni     -5.90684606     6.72435494    -3.91601443    -0.31411796    -0.80933681    -1.11803569
Ni     -1.88232783     0.02689799    -5.95988411    -0.37044939    -1.84839698    -0.89736949
Mo     -9.78287117     8.65393047   -10.18162062    -0.24007426    -0.24481876    -0.30701474
Mo     -9.83685619     8.58723727    -6.40824521     1.70412151     1.04148008     0.39383149
O      -2.00987194     1.89487988    -2.05217850    -0.13790065     0.32483109    -0.00269894
O      -2.01687840     1.81414178    -5.95907844     0.56630853     0.62829826    -0.69755191
O      -5.94223450     6.87529937    -1.96566401     0.24381240    -0.43043179     0.39826548
O      -5.79081100     6.84358823    -6.03299077    -0.43516650     0.45442981     0.68637039
O      -5.82547238     1.90427505   -10.11270164    -0.95731617     1.00764383     0.06745599
O      -5.82160970     1.83629714    -5.90206765    -0.56481751     0.09048639     0.73305393
O      -9.87533643     6.75108860    -9.84012907    -0.00458355    -0.03014637     0.37327741
O      -9.90183743     6.70588313    -6.12168387     0.13841262    -0.54128936     0.56708429
O      -3.90376185     2.41559507    -4.14533246    -1.31187719    -0.09378156     1.47359727
O      -3.96996117     2.53261049    -8.03151947     0.27802429    -0.39517524     0.26019737
O      -7.90640815     2.37406824    -4.03843421     0.53573632     0.62304624     0.25993442
O      -7.85304006     2.45235666    -7.92509193     0.07407796     0.53488023    -0.51490516
O      -3.97673223     6.46814542    -3.90659627     0.62058526    -0.73162908    -0.00843128
O      -3.90529944     6.36653868    -8.02647104    -0.03148592    -0.38120313     0.36167860
O      -7.83048769     6.36942615    -3.97109969    -0.81441213    -0.51084427     0.02303136
O      -7.74394966     6.40680536    -8.01584584    -1.15818769    -0.36987865     0.63917163
O      -3.82686458     4.35509797    -2.01960692    -0.32593025    -0.07050024    -0.27774259
O      -3.79464319     4.39364222    -5.89223888    -0.05705316     0.16247655    -0.82947910
O      -8.13124355     4.42145373    -9.97354268     0.85283812    -0.20835027     0.13910254
O      -7.77551081     4.44114409    -5.99903084    -0.18833097     0.02343268     0.87547022
O      -7.96114721     8.64501975    -9.90902086    -0.11862715     0.41223468    -0.04105710
O      -8.07644784     8.49094249    -6.08068903     0.04612814     0.53584841    -0.14489342
O     -11.65869856     8.69676457    -5.95170579    -1.38769729     0.01341261    -0.15736866
O      -7.73936350     0.05473993    -9.91214833     0.74479547    -0.02800189    -0.48601250
O      -1.94992324     4.15219867    -3.97851063    -0.26166649     0.93417429     0.06382959
O      -9.76871142     4.42459161    -4.15809573     0.01258424     0.31965118     0.33025780
O      -5.87259316     4.79395226    -3.91285620    -1.62534220    -0.07299883    -0.06868421
O      -5.81964345     4.44673459    -8.03975111    -0.63012639    -0.62366779     0.15054309
O      -5.96882792     8.72439440    -4.02461938     0.18491184     0.26362782     0.19893346
O      -5.90372343     8.58487219    -7.92426621     0.30023993     0.53149204    -0.14106781
O      -9.70448060     8.39421171    -3.98333156    -0.61336990     0.03272665    -0.62550090
O      -5.95703266     0.57151835    -8.09643068     0.03524978     0.09089931     0.07501362
