# total energy = -630.48676247 eV

CRYSTAL
PRIMVEC
        0.00279571     0.02951795    -7.98606283
       -7.83802570     0.01298533    -3.99532603
       -3.92160916     8.71933433     0.00634407
PRIMCOORD
56 1
Li     -3.98115524     2.13449259    -1.90626962    -0.02579648     0.17449581    -0.07525628
Li     -4.02053963     2.34661248    -5.98779454     0.73167928    -0.15665607    -0.30569341
Li     -7.77208410     2.31628811   -10.13190495    -0.12470441    -0.34011856     0.40138138
Li     -7.75980773     2.29581879    -5.99980768    -0.41447336    -0.12841290     0.11001049
Li     -3.90366587     6.60794630    -1.91134751    -0.35446447    -0.28772503    -0.08699531
Li     -3.80711531     6.30322933    -5.90215403    -0.50489991     0.23078993    -0.03889447
Li     -7.76521875     6.48263393   -10.06875748     0.00243455     0.00377313     0.54787522
Li     -7.85563508     6.42955894    -5.82554033    -0.30552917     0.30518628    -0.00723624
Ti     -1.98767530     2.11975271    -4.12375202     0.65336788     0.53158800    -0.23099264
Ti     -5.91780791     6.58057756    -7.93456754     0.97072104     1.81271308    -0.72046134
Ti     -7.84418169     4.41495159    -7.68321869    -0.06405121     0.48456287    -1.12189168
Ti     -7.87256166     4.29759952    -3.77280417     0.73425661    -0.09369390    -0.19047336
Ti     -3.77631561     4.37500434    -7.76914420    -0.11033903     0.40909077    -3.00840804
Ti     -3.97551933     4.29487321    -3.71817693    -0.44907433     0.86473717     2.15830859
Ti     -2.11485346     0.08901792    -1.98077604    -0.91173397    -1.29024750     1.43908733
Ni     -5.88494275     2.21357300    -7.95944316     0.14317093    -0.43865932     0.01163581
Ni     -5.82702571     2.32070794    -4.07688466    -1.07774760    -0.71733715     0.30276728
Ni     -9.79272618     6.40646447    -8.06967997     0.06059239     0.11116207     1.05327732
Ni     -9.72029088     6.73989969    -3.91893305    -1.02109221    -0.50003118    -0.64154052
Ni     -2.03998843     2.19513283    -8.05324272     0.82948839    -1.89455214     0.70379627
Ni     -5.77746401     6.72441349    -3.97053941    -0.85229429    -1.04695762     0.60815413
Ni     -5.92085672     8.72014894    -5.96842765    -0.06633984     1.05467299    -0.07976090
Mo     -9.95177915     8.65544199   -10.26239823     0.89126807     1.42163008     1.16122210
Mo     -5.88549932     0.13130194    -6.35001085     0.34220357    -1.56441698    -1.64254706
O      -1.89096951     1.97522331    -1.93757218    -0.73408665    -0.12066496    -0.92066281
O      -2.03011228     1.88429674    -6.04634501     0.23822892    -0.17604630     0.33835867
O      -5.89687718     6.71026362    -2.01811356     0.80767368     1.39399456     0.01717315
O      -5.84803375     6.90625912    -5.82712771    -0.06901776    -0.13119077    -0.77615794
O      -5.84907192     1.90346713    -9.85357091    -0.52714592    -0.24142428     0.19177443
O      -5.80326933     2.04060229    -6.00736818    -0.93560549     0.23317370    -0.75905070
O      -9.66301188     6.81636500    -9.98691614    -0.83084473    -1.32165288    -1.47217691
O      -9.95344962     6.86283100    -5.78699056     2.10157799     0.67792104    -0.32832507
O      -3.91103986     2.34261074    -4.02917686     0.89918855     0.32121527     0.19435176
O      -4.03323833     2.34716155    -8.00853362     0.05054559     1.01830776     0.67654155
O      -7.78142448     2.30219880    -4.16394717     0.41369601     0.73437145     1.40047503
O      -7.89000759     2.53128512    -7.97438877     0.69195651    -1.00238099    -0.12998768
O      -3.85824728     6.18327690    -3.91663831    -0.21077589     1.19177466    -0.55000385
O      -3.88119100     6.48372602    -7.95900160     0.31831819    -1.08741544     0.82415649
O      -7.80496785     6.22163527    -3.93041112     0.06526990     1.12029763    -0.47146057
O      -7.84044573     6.44071070    -7.99718924    -0.44464486    -1.11263738     0.53176467
O      -4.02057165     4.25059837    -1.89931300     0.01052219     0.07370444    -1.95665307
O      -3.95923545     4.41347670    -6.07171477    -0.03483527    -0.43555386     2.05832877
O      -8.00720157     4.21064927   -10.01073510     0.60702350     0.52944156     0.17818175
O      -7.99380793     4.34878608    -5.95136967     0.34100692     0.50119856    -0.46758492
O      -7.85321569     8.71805830    -9.95091468     0.74490972     0.47159839    -0.60440355
O      -4.10073569     0.07518504    -6.03167509     0.57212510    -0.45105693     0.20171018
O      -7.63891729     0.15028774    -5.97006504    -0.51249483    -0.10839549    -0.16785514
O      -7.75220526     0.07547343   -10.10976918    -0.97357383    -0.44858751     0.06961342
O      -1.98643048     4.35974769    -4.11458323    -0.13045949    -0.00041394     0.61643302
O      -1.92455052     3.94856275    -0.08759165    -1.03556706     1.07192882     0.14943899
O      -5.90834025     4.19250585    -4.14763159     0.54265500    -0.41427239     0.47051710
O      -5.86447900     4.76342088    -7.96853782    -0.62995676    -1.37701142     0.32594212
O      -1.76076772     0.29831240    -3.89816960    -0.40885537    -0.26034900    -0.83692703
O      -5.93135020     8.61122670    -7.98881595     0.19477692    -0.01615484    -0.30863222
O      -5.72570255     0.39739382    -3.95584590    -0.14180853     0.63392457    -1.66207234
O      -9.81997149     8.27137951    -8.21440172    -0.19319562     0.18863576     2.84242565
