# total energy = -629.91014807 eV

CRYSTAL
PRIMVEC
        0.00279571     0.02951795    -7.98606283
       -7.83802570     0.01298533    -3.99532603
       -3.92160916     8.71933433     0.00634407
PRIMCOORD
56 1
Li     -3.94104542     2.19718705    -1.91667662    -0.19831736     0.58694741    -0.22039974
Li     -4.01550784     2.30069534    -6.00610832     0.72752978     0.09330952     0.33723824
Li     -7.86733298     2.36630974    -9.93456032     0.42031673     0.17751914    -0.40780546
Li     -7.82392632     2.26516272    -5.76104104    -0.14533947     0.03813135    -0.69756891
Li     -3.78508152     6.68070632    -2.08609934    -1.17066254    -0.02677133     0.18750949
Li     -3.79658669     6.33614514    -5.95034595    -0.31840991    -0.17065011    -0.05382275
Li     -7.89350856     6.64239475   -10.18640760     0.09775106    -0.35524355     0.67505589
Li     -7.90321298     6.75499005    -6.04952243     0.01469880    -0.20985679     0.24951260
Ti     -1.84059121     2.17516687    -4.10126672    -1.76141507     1.29172721     0.84827280
Ti     -5.75690893     6.62480006    -7.97795104     0.20102403     0.22201622    -1.33076249
Ti     -7.68236284     4.37911382    -7.68914831    -0.13279103     1.36099201     0.42023426
Ti     -7.69966940     4.38126791    -3.81783550    -0.54844089     0.40699558     0.84440712
Ti     -3.81393823     4.40107909    -7.79386612     1.18818126    -0.56991818    -0.65007711
Ti     -4.04220098     4.39791186    -3.64878797     0.76150674    -0.07547635     0.89084446
Ti     -2.38186926     0.05330838    -1.96198770     1.83072341    -0.20556917     0.49218518
Ni     -5.80790229     2.21060524    -7.80769735     0.03444309     0.02312920    -1.07041627
Ni     -5.98575343     2.01702958    -4.02772436     1.55723724     0.38341823     0.61455569
Ni     -9.73806520     6.27430109    -8.07809704    -0.52621362     1.22187355     0.08309173
Ni     -9.69085978     6.48390792    -4.11012539    -1.07700049     0.95071965    -0.45902795
Ni     -1.91537148     2.12661798    -8.07416737    -0.19752205     0.14528045     1.70415014
Ni     -5.79638677     6.75482389    -4.20230727    -0.54715964    -0.66997443     1.65669865
Ni     -2.05037995     0.07666654    -5.90977292    -0.01940236     0.00600271    -1.69839483
Mo     -6.14859464     0.10827251   -10.09790086     0.59768531    -0.45717532    -1.86015152
Mo     -5.94737894     0.10123568    -6.33490145    -0.09191002    -0.00553198    -0.23626705
O      -1.92917125     1.98030934    -1.90536598    -0.27099688    -1.02638140    -0.78198257
O      -1.96594177     1.90276326    -5.98393558    -0.03065252     0.56420922    -0.54535755
O      -5.75229796     6.91880017    -2.08806535    -0.90724714     0.69284920    -0.58484624
O      -5.91511378     6.91617889    -6.03794201     0.31875261     0.59124282     0.50480117
O      -5.87773564     1.92035239    -9.69812599    -0.59962116     0.10308842     0.41646346
O      -5.85350340     2.03140257    -5.97581494    -0.43742336    -0.09912362     0.14174327
O      -9.84030075     6.79734646   -10.21352613     0.58164914     0.30242014     0.63268039
O      -9.86984424     6.77093806    -6.00475542     1.65172523    -0.07736949    -0.08024567
O      -3.82611937     2.51167221    -3.98294616     0.12889210    -0.86736368     0.25688151
O      -3.91285353     2.33723836    -8.00320975     0.28070904     0.78054457     0.63576566
O      -7.76872888     2.31616957    -3.90059245    -1.43455052     0.58082335    -0.31936787
O      -7.78499139     2.47673130    -7.83674431     0.33229059    -1.19651807    -0.87094183
O      -3.90306399     6.36753698    -4.05472161     0.05708574    -1.28489611     0.06548819
O      -3.82587946     6.47146812    -8.11319608    -0.21997509    -0.91981298     1.14168539
O      -7.79203511     6.43442662    -4.06230385     0.69948542    -0.75717296     0.03384870
O      -7.67615630     6.26526724    -8.18373854    -1.54338491     0.21372980     0.68142066
O      -3.96952906     4.29209655    -1.85054372    -0.16203065     0.03208084    -1.94576226
O      -3.91486000     4.25429200    -6.04786087     0.46304532     0.67936707     0.14602338
O      -7.80334500     4.25142459   -10.02987114     0.01069660     0.34307731    -0.06327693
O      -7.78655938     4.32610702    -5.93082297     0.28981736    -0.03460755    -0.75165712
O      -4.16027391     0.12060250    -2.16924414     1.22464797    -0.61638107     0.49996569
O      -8.10889010     8.73769228    -5.91919660     1.06610319     0.16068014    -0.09303690
O      -7.65289022     0.10708415    -5.83925333    -0.54586289     0.13379861    -0.92125045
O      -7.87674128     0.15655577   -10.13065866    -1.07613057    -0.23289967     0.75577031
O      -9.73276794     4.39817039    -7.86988656    -0.11779472    -0.10697621    -0.77748997
O      -9.63731028     4.57638600    -4.12004280    -1.40635152    -0.11199139     0.24946157
O      -5.84367024     4.21769788    -4.11589061     0.18637286    -0.55830161     0.25639114
O      -5.74033819     4.69255581    -7.93748408    -0.72359845    -0.35923991     0.04427690
O      -1.92138034     0.35880664    -4.01835669    -0.01219556    -0.95519965     1.21519345
O      -6.07966311     8.52044655    -8.00529954    -0.13093211     0.61901336    -0.60235986
O      -9.98105642     8.72963300    -4.02734441     0.87877448     0.05006808     1.58598726
O      -9.94965325     8.15719304    -8.09319600     0.59019962    -0.10754655    -1.22411846
