# total energy = -630.85494293 eV

CRYSTAL
PRIMVEC
        0.00279571     0.02951795    -7.98606283
       -7.83802570     0.01298533    -3.99532603
       -3.92160916     8.71933433     0.00634407
PRIMCOORD
56 1
Li     -3.88236586     2.09218047    -1.88455411    -0.10949237     0.40632931    -0.08412738
Li     -4.10088219     2.44296166    -5.90844326     0.24251456    -0.42247161    -0.43126165
Li     -7.94386434     2.16454176   -10.06098909     0.45097573     0.28690847     0.38137281
Li     -7.76261403     2.21699958    -5.93318503    -0.57150161     0.37055211     0.17951932
Li     -3.99530231     6.39447546    -1.94406425     0.52362948     0.10463074    -0.29641341
Li     -3.89244059     6.43626681    -5.96531292     0.25060562     0.18583481     0.23144106
Li     -7.85713909     6.37195136    -9.95835335     0.34909803     0.04904747    -0.02128407
Li     -7.77093697     6.54821409    -5.79641472     0.31297284     0.02481726    -1.08736155
Ti     -1.95636951     2.18568924    -4.05921715     0.36708185     1.14870172    -0.41962715
Ti     -5.84700068     6.79776889    -7.95373540     0.00490058     0.06053100    -0.16863880
Ti     -7.88338904     4.40054707    -7.71408968     0.09899661    -1.25488981     0.73855243
Ti     -7.96091674     4.28665533    -3.75603073    -0.05421951     0.07685779    -2.60705741
Ti     -3.95881197     4.39846570    -7.80489517     0.00677946    -0.54843558    -1.81358661
Ti     -4.04213403     4.34023774    -3.73953280     1.16409976     0.21203321    -0.42486392
Ti     -2.03525269     0.09075166    -2.09077357    -0.74676858    -1.00038741    -0.02270456
Ni     -5.91944125     2.31316782    -7.94053748     0.06201708     1.36189016    -0.40018240
Ni     -5.90222579     2.23995104    -3.82824343    -0.14299606    -0.06199375    -1.72061131
Ni     -9.84251219     6.67487754    -7.94740626     0.85277484    -0.59717066     0.22695250
Ni     -9.76017766     6.52271238    -4.15873319     0.28207205    -1.16157166     0.43297429
Ni     -1.97646887     2.07642157    -8.01112265    -0.17445863     0.39638147     0.56755201
Ni     -5.86868472     6.45252785    -4.01190840     0.17447024    -0.12124616     0.38012773
Ni     -1.95010520     0.04183148    -5.93589881    -0.28474797     0.26844914    -0.52567745
Mo     -5.94886391     0.06615483   -10.29531107     1.39004895    -0.84930873     1.02357067
Mo     -9.84792036     8.71496807    -6.33184277     1.25827248     0.72607251    -1.22218634
O      -1.92270886     2.01395746    -1.97468466     0.10207445    -0.79143595     0.32694637
O      -1.97580528     1.89824441    -6.08919681    -0.34060110    -0.38511230     0.48859343
O      -5.83832393     6.79698911    -1.96479955    -0.77383567    -0.03127383    -0.12979953
O      -5.79227516     6.91510704    -5.93900093    -0.52411859    -0.07819155     0.43814045
O      -5.86880420     1.91298823    -9.96967841     0.23157341     1.71965724    -0.39529196
O      -5.98730235     1.94068859    -5.74737637     0.86242985    -0.61464836    -0.48262343
O      -9.64228040     6.92054122    -9.78265430    -1.09485558     0.43684067    -0.18117736
O      -9.61657267     6.77858837    -6.11769977    -1.45785861     0.07496093     0.69274710
O      -3.90816822     2.41816116    -3.99469885    -0.79467330    -0.74808167     0.16734317
O      -3.94025236     2.47552915    -7.99879090     0.21689571    -0.11476478     0.53263573
O      -7.83953242     2.29386205    -3.98382098    -0.26706098     0.38699803     0.30537968
O      -7.90758486     2.34652466    -7.94120992     1.08092289    -0.03198956    -0.47629092
O      -3.85418458     6.25073866    -3.97704479    -0.11495478     1.15124382    -0.11076087
O      -3.95114609     6.44500775    -7.98856924    -0.10320489    -0.49827351    -0.23498309
O      -7.82661900     6.25592449    -4.06003472     0.15570105     0.02297707     1.16047212
O      -7.77190815     6.26956987    -7.86606357    -0.11165912     1.36821095    -0.75569130
O      -3.75157811     4.34254518    -2.03430167    -0.60241120     0.41840882     1.05317453
O      -3.90779322     4.57417786    -6.09897506     0.18334719    -0.83990112     1.97533350
O      -7.92123455     4.21756333   -10.03848925     0.27662712     0.37125286     2.13530914
O      -7.60924031     4.20090345    -5.98796755    -0.91437985     0.34963654     0.03264522
O      -3.87453473     0.11062470    -1.95638894     0.30933616    -0.07105537    -0.38437058
O      -4.14498037     0.13514606    -6.14471199     1.14170571    -0.41666368     0.51184551
O     -11.63201505     8.56647085    -5.99710155    -0.39911731     0.52882026     0.07338745
O      -7.67124636     0.07529368   -10.17284737    -1.30594296    -0.30704066     0.27478480
O      -1.92441361     4.07285796    -4.05546966    -0.65073799     0.46196051    -0.01846120
O      -9.82974767     4.55883034    -4.15550344     0.17031403     0.69337756     0.40393690
O      -5.88982309     4.33982764    -3.95434622    -0.81747003     0.24608533     0.13206282
O      -5.95430541     4.22137743    -8.00933813     1.30547867     0.37377915    -0.59794870
O      -1.84905017     0.27193535    -3.97984282    -0.41054111    -1.03678406    -0.27841250
O      -5.81576529     8.60426199    -7.97445988    -0.24515768    -0.18802786    -0.03538702
O      -9.59500772     8.42932877    -4.04065401    -0.32044273    -0.60182054    -0.84264701
O      -5.86708038     0.55241984    -8.15237324    -0.62365752    -1.48936760     1.32265518
