# total energy = -631.01377925 eV

CRYSTAL
PRIMVEC
        0.00285542     0.02004370    -7.95977623
       -7.82940539     0.00763210    -3.98158109
       -3.91729101     8.74642787     0.01461334
PRIMCOORD
56 1
Li     -3.94798171     2.16096249    -2.00284097    -0.14149760     0.26579893     0.22394670
Li     -3.89695439     2.28077076    -6.02066085    -0.09957439    -0.26785344     0.39797112
Li     -7.77191562     2.28530681   -10.03826861    -0.05369594     0.01287054     0.04840535
Li     -7.94022825     2.07438290    -5.86039651     0.75834636     0.57159038    -0.21868173
Li     -3.70460274     6.17957120    -1.75478787    -0.58772646     0.00529229    -1.09119755
Li     -3.84067670     6.41094480    -5.82954881    -0.65542749    -0.29037393    -0.02712464
Li     -7.90634186     6.47716985    -9.88324882     0.21074953    -0.13529305    -0.20787661
Li     -7.88308427     6.50918865    -5.77655056     0.39665274     0.18758190    -0.48054048
Ti     -1.87617836     2.21495802    -4.07763771    -0.93300720     0.57998514    -0.74953925
Ti     -5.79896120     6.69506799    -8.06212961     0.05793745     0.76800301     0.16112768
Ti     -7.88579317     4.42241317    -7.65431312     0.36976501     0.11552997     0.20225859
Ti     -7.85992774     4.38209866    -3.70201850    -0.01317221     0.47885121     0.03696074
Ti     -3.82214410     4.30530492    -7.68531962    -0.08410585     1.64858783     0.33911671
Ti     -4.10487403     4.31071045    -3.67510734     0.49878553     0.44655027    -1.08646739
Ti     -2.14624985     0.04559346    -2.07504409     0.59074260    -1.20972656     0.43183559
Ni     -5.87563941     2.33413689    -7.98136411     0.21867066     0.47311831    -0.89788027
Ni     -5.84746744     2.10605866    -4.08060153    -0.61492131     0.11659726    -0.40375312
Ni     -9.87351691     6.54444978    -7.83787550     0.09118024    -0.06072731     0.90633430
Ni     -9.71007143     6.69378455    -4.03269544    -0.43054275    -0.53275433     0.86882639
Ni     -1.99434349     2.18904855    -8.04545591     0.10859047    -0.06075579     1.20818616
Ni     -5.85792303     6.76723044    -3.94484925    -0.01581346    -0.59557828    -0.05286938
Ni     -1.98701023     0.02240549    -5.96524326    -0.14473121    -0.24972428    -0.27853722
Mo     -9.90962675     8.65400800   -10.08296906    -1.79026820    -0.52937985    -0.62676982
Mo     -9.84515386     8.74663046    -6.38976077     2.70772595    -0.95296413    -0.13390772
O      -2.00557700     1.92995241    -1.95187172     0.00163908     0.27135019    -0.18912198
O      -1.87696279     1.87429810    -6.06339691    -0.70847275     0.26221233     0.11472736
O      -5.69663521     6.78275291    -2.03317273    -0.67495208     0.44105794     0.48289092
O      -5.98646761     6.94862573    -5.83462742     0.82011707    -0.31174723    -0.06993497
O      -5.87314733     1.84725802   -10.11418905     0.42655750     1.07043632     0.08621947
O      -5.88150469     2.00612712    -6.04283830     0.46280384    -0.13086869     1.06527013
O      -9.83180540     6.78155472    -9.64910101     0.27855992     0.69539358    -0.68170938
O      -9.82726218     6.84705027    -5.96682825     0.25743719    -0.19466807    -0.34984809
O      -3.83082406     2.39516438    -4.01277312    -0.71530819    -0.89880833     0.04613356
O      -3.95088995     2.48186693    -7.93928660     0.56460626    -1.50912110    -0.39960215
O      -7.96546546     2.45102642    -4.03833626     0.38602989    -0.25198826     0.60363506
O      -7.83870340     2.38175930    -8.03104755     0.81629429     0.58736384     0.51842185
O      -3.94884872     6.27119573    -3.78264691     0.30621255     0.50817542    -1.07359406
O      -3.90031825     6.38715243    -7.93567680    -0.18100673    -0.31245401     0.92750704
O      -7.79559020     6.45382931    -3.89483893     0.16718848    -0.65006451     0.23375684
O      -7.73149783     6.38358061    -8.01733871    -0.57203544    -0.88516442     1.15614061
O      -3.90005601     4.29656173    -1.95067830    -0.00672407    -0.22852952     0.99786408
O      -3.73577789     4.32662448    -5.90495989    -0.13324999     0.42523102    -0.66644455
O      -7.72952875     4.38279567    -9.87155873    -0.53304412    -0.04887455    -1.04962996
O      -7.81121264     4.35423343    -5.89079309     0.22224984     0.57891933    -1.27810070
O      -7.82894193     8.64512706    -9.87632855    -0.80446246     0.13969425    -0.78979997
O      -7.99322147     8.70611102    -6.10182390    -0.00653409     0.50983648     0.58659315
O      -7.62390582     0.18021502    -6.01865336    -1.45717479    -0.56205347    -0.01643970
O     -11.72339260     8.72643731   -10.04741722     1.40887428    -0.48501105     0.68401930
O      -2.00802582     4.16026253    -3.83375129     1.25333443    -0.32532565    -0.55986949
O      -9.74060315     4.71929811    -4.13177277    -0.11921936     0.31342734     0.72977715
O      -5.91639381     4.08035399    -4.05586744    -0.33661074    -0.48996083     0.12335212
O      -5.84266003     4.24870771    -7.99243297    -0.04965976     0.48121133     0.59018272
O      -1.81123374     0.28400382    -3.93904326    -0.53771828    -0.18625983    -0.23588792
O      -5.74930975     8.53849282    -8.03739257    -0.30741940    -0.64820736     0.14030711
O      -5.86734823     0.07257766    -3.97220942     0.51145705    -0.10311951    -0.39934243
O      -5.65215990     0.46752144    -8.18751131    -1.36530366     0.95913536     0.28407141
