# total energy = -630.26005310 eV

CRYSTAL
PRIMVEC
        0.00285542     0.02004370    -7.95977623
       -7.82940539     0.00763210    -3.98158109
       -3.91729101     8.74642787     0.01461334
PRIMCOORD
56 1
Li     -3.89510002     2.18909896    -1.92265024     0.10305748     0.01720171    -0.23101735
Li     -4.01574372     2.10361073    -6.00839935     0.09692349     0.11137096    -0.22439263
Li     -7.64632222     2.29452843    -9.95420121    -0.92584496     0.15963836     0.21545849
Li     -7.82631441     2.51181482    -5.88377164    -0.01527598    -0.81936167    -0.17355116
Li     -3.79061263     6.53652256    -1.88519840    -0.69485674    -0.01861697     0.15884769
Li     -3.98484625     6.57340120    -5.97078612    -0.09402426    -0.25925772     0.51822206
Li     -7.86804239     6.58629161    -9.88065160    -0.17281406    -0.23418051    -0.05259648
Li     -7.88361201     6.28054071    -5.79625450     0.22965386     0.97659483     0.15924053
Ti     -2.01939278     2.19567676    -4.23373935     1.66903059     1.43597897     1.18498556
Ti     -5.98801356     6.80201567    -7.90261780     2.18855491     1.04550816     0.86984002
Ti     -7.78691267     4.38205507    -7.68275510    -0.25525074    -1.17821894    -2.34262403
Ti     -7.74744647     4.33574378    -3.65915734    -0.24393243     0.46826538    -0.38374157
Ti     -3.93140618     4.38922177    -7.72276662     1.01072536     0.61260100     1.27146672
Ti     -3.88324255     4.35139388    -3.70158444    -1.25472004     1.91716916     1.03123317
Ti     -6.02039434     8.72400836    -2.25974921     0.87457877     1.22228029     1.37246144
Ni     -5.76363231     2.29569652    -8.02602638    -1.34477248    -0.23497424    -0.54261026
Ni     -5.91011353     2.11577152    -3.99131143     0.75684856    -0.00189045    -0.91691679
Ni     -9.86273654     6.52445774    -7.73927700     0.02189691    -0.17504647    -0.24641107
Ni     -9.77321741     6.39850091    -3.88889693    -0.07753925     0.03830760    -0.54374153
Ni     -1.84305816     2.32072746    -8.00353388    -1.07691628    -0.58765065    -0.50795365
Ni     -5.81645256     6.59333158    -3.84289901    -0.78860377    -0.08889623    -0.70698363
Ni     -1.96446691     0.08990115    -5.99717845    -0.76342991    -0.93621759    -0.34166869
Mo     -9.91240529     8.70219756   -10.21403382    -0.47543030     0.73686752    -1.14805421
Mo     -9.78000672     8.72539991    -6.36601975    -1.63679074    -1.27489076     0.86859422
O      -1.90513372     1.90667613    -1.96761688    -0.02931900    -0.57902125     0.03962254
O      -2.00733599     2.07154146    -6.09601767     0.24069248    -1.32662781    -0.07429718
O      -5.91613821     6.85596491    -1.84419573     0.01080179    -1.04825337    -1.56999700
O      -5.91794331     6.97467465    -5.86874659     0.19981826    -0.03855694     0.43386695
O      -5.86398642     2.09503150   -10.04948722     0.86067974    -1.54573678     0.69099595
O      -5.90382404     1.92635772    -6.01300283     0.03844174     0.36806835     0.19525273
O      -9.85308458     6.90401221    -9.85839863     0.74602172    -0.44213385     0.77342315
O      -9.77091844     6.83352265    -5.81349769     0.34668044    -0.50026544    -0.86127630
O      -3.92348126     2.49439619    -3.97993247    -0.13902622    -2.48501070    -0.53303123
O      -3.81852051     2.43939196    -8.04532857    -0.23234718     0.55322667     0.99275217
O      -7.75946084     2.28012636    -3.94389277    -1.08157687     1.11262311    -0.15528673
O      -7.88200963     2.37630594    -8.02738687     0.52426024     0.99396513     0.34668145
O      -3.97568450     6.34259501    -3.95202561     0.69781816     0.17770599     0.52559924
O      -3.98653869     6.49663444    -7.90624039    -0.14233533    -1.04054791     0.16434931
O      -7.78288222     6.30693300    -3.89334230     0.19044340    -0.18241484     0.27327041
O      -7.81624807     6.34857979    -7.79691091    -1.19105546    -0.22489573    -0.83023164
O      -3.83980721     4.52742980    -1.88994694    -0.13889125    -0.01682625    -1.17248907
O      -3.80300923     4.64129875    -5.91633690    -0.42198448    -0.82090449    -1.33212728
O      -8.00835459     4.39267677    -9.90485669     0.60476439     0.18714475     1.22742402
O      -7.84579029     4.46538448    -5.97549029    -0.36580590    -0.90402522     1.79351672
O      -7.85115199     8.69168714    -2.10453571    -1.03830354     0.26704609    -0.09650494
O      -7.98761144     8.69782956    -6.12551001    -0.06574218     0.69466745     0.17861539
O     -11.63901427     8.56351200    -6.10442411     0.60626637     0.60917626    -0.06947767
O     -11.69582849     8.72462426   -10.11229638     0.96745183     0.62576532    -0.11079363
O      -2.01275637     4.12530317    -3.95632166     1.02904949     0.13466768     0.03461536
O      -9.74476256     4.48693226    -3.93597958    -0.18546657    -0.42595011    -0.63932273
O      -5.89919509     3.99283286    -3.89738552     0.77726111     0.72035405    -0.41565184
O      -5.84142864     4.27777876    -7.83030147    -0.67855885    -0.08824740    -0.60320346
O      -1.89446039     0.28570017    -4.08752093    -0.37637077     0.07939750    -0.74695068
O      -6.06929708     8.61789838    -7.91552162     0.52847477    -0.24200118     0.19332753
O      -5.84713107     0.12450509    -4.15290387    -0.01974016     0.74596450     2.06845228
O      -5.98066194     0.40045572    -8.20650948     0.95698918     1.09978937     0.05541936
