# total energy = -630.35061054 eV

CRYSTAL
PRIMVEC
        0.00279571     0.02951795    -7.98606283
       -7.83802570     0.01298533    -3.99532603
       -3.92160916     8.71933433     0.00634407
PRIMCOORD
56 1
Li     -4.06035347     2.46578469    -2.01041417     0.06962344    -0.05492163    -0.07778378
Li     -3.86427752     2.18185585    -6.04750534    -0.86888268    -0.04069296     0.23932547
Li     -7.97960933     2.55797176   -10.03126414     0.26411971    -0.16699513     0.13285513
Li     -7.80461497     2.21326748    -5.88728194     0.26960509     0.26319650    -0.07157347
Li     -3.85832037     6.48065816    -1.86423400    -0.24033826    -0.22708150    -0.73063149
Li     -4.07327919     6.36950186    -5.87504924     0.54067644     0.08383447    -0.11627996
Li     -7.70981477     6.54267119    -9.96411242    -0.67626474    -0.26468227     0.00919238
Li     -7.82174328     6.55539912    -5.98280571    -0.52958305     0.10256498     0.21784901
Ti     -1.89857417     1.99464098    -4.03922487    -0.35282914    -0.24051623     0.44036888
Ti     -5.73255997     6.65060755    -7.91208990    -1.15381568    -1.53068721    -0.25812906
Ti     -7.69767362     4.50601863    -7.78441052    -0.29675042    -1.22522728    -0.10492694
Ti     -7.77840031     4.53239009    -3.79358750    -0.17862107    -2.19809769     1.13055798
Ti     -3.81836037     4.30831331    -7.79118129     0.07566613    -0.67279464    -0.84427516
Ti     -3.78247442     4.41963383    -3.83503180    -1.87218730    -0.79536341     2.10287569
Ti     -2.22989613     0.07748807    -1.82391962     0.03018734     1.13061714    -1.36673170
Ni     -5.85616601     2.17300390    -7.90933760    -0.43547286     0.11262671    -0.53567803
Ni     -5.85044833     2.36081724    -3.95485821    -0.38452283     0.33556112    -0.62662536
Ni     -9.81448260     6.40582600    -8.04443702     0.47410599     0.73220392    -0.36051499
Ni     -9.83776180     6.53046830    -4.06216083     0.64164590    -1.08970356     0.09363183
Ni     -1.94835016     2.14209110    -8.09072755     0.20599686     0.50876289     0.80061266
Ni     -5.81643127     6.55879361    -3.94431278    -0.37599421     0.04086335    -0.25605051
Ni     -5.92731222     8.71644874    -5.89999585    -0.67477574     0.06594749    -0.61845303
Mo     -9.98638611     8.75558237   -10.29064446    -1.21500500     0.62837859     2.07243833
Mo     -9.83510923     8.72747246    -6.32859831     0.05036716     1.75244114     0.42709280
O      -1.84324161     2.08958182    -2.01207688    -1.00039904    -1.48623794    -0.07152489
O      -2.09733315     1.86677890    -6.05081340     1.56039310    -0.16269726     0.01974805
O      -5.70438029     6.94825309    -1.94814221    -1.10894069    -0.39217569    -0.71093921
O      -5.98872760     6.80019187    -5.92152371     1.25428915     0.93661116     0.01104393
O      -6.05608779     1.89512733    -9.84744698     0.84028755     0.13024222    -0.37862971
O      -5.84728796     1.92506017    -6.01716717     0.19881474     0.57459382     0.37337590
O      -9.94769982     6.82653895   -10.01595011     0.98636421    -1.00111681    -0.24959353
O      -9.86772995     6.81423249    -6.05357119     0.48744404    -1.53625250     1.12230809
O      -3.83912671     2.40510081    -4.00497640     0.05075680     0.61783884     0.45985995
O      -3.97718522     2.29289621    -8.16365149     0.33995954     1.26879414     1.28350521
O      -7.74739621     2.46573953    -3.95375031    -0.56871660     0.09521461    -0.27643989
O      -7.82422327     2.48499914    -8.01414532    -0.52571694    -0.21367172     0.15078165
O      -3.86695815     6.31026690    -4.00986393    -0.90498656     0.62243864    -0.27383472
O      -3.87661442     6.39441420    -7.92324050    -0.14066091    -0.39361714     0.32015296
O      -7.87303249     6.36561292    -3.97342227     0.30473133     1.57696540     0.03166455
O      -7.73106028     6.39772706    -8.03402334    -0.47452426     0.84825907     0.12071123
O      -4.03317528     4.53855532    -1.98304657     0.29616964    -1.09806139    -1.48452483
O      -4.03503165     4.25296307    -6.02199489     0.14791531     0.46870511    -0.29385294
O      -7.98451843     4.50712967    -9.93850012     0.29385907    -0.05863091    -1.59447831
O      -7.80858683     4.52571900    -6.02293630    -0.27628939    -0.28389057     0.00332687
O      -4.13044565     0.15469835    -9.99477670     1.28090567    -0.62626359     0.09262702
O      -7.99693949     8.70707949    -5.90242268    -0.06825622     0.10795180    -0.72778311
O      -7.72240025     0.17265977    -6.08180748     0.36120608    -0.32248245     0.03420271
O      -3.92613626     8.72968118    -5.89223432     0.39909868    -0.10027947    -0.66516966
O      -9.81275203     4.52388247    -8.00289564     1.34765991    -0.52140240    -0.20067457
O      -9.79899063     4.43098714    -4.11018140    -0.07030602     0.45235838     0.25429322
O      -5.89933654     4.32777463    -4.06084834     0.52811967     0.15639093     0.31788075
O      -5.85128980     4.61119009    -8.13979190     0.73217354     0.66479028     0.64949862
O      -2.10320862     0.16809105    -3.94696889     0.63992401     0.51908571     0.81026802
O      -5.77104863     8.51367180    -7.99665536    -0.43834976     1.14117987     0.58002860
O      -9.92334506     8.41576104    -4.06540745     0.02379141     0.48140755    -0.43577783
O      -9.79622674     8.20526553    -8.06217846     0.10996538     0.69077494    -0.96331222
