# total energy = -630.34862139 eV

CRYSTAL
PRIMVEC
        0.00279571     0.02951795    -7.98606283
       -7.83802570     0.01298533    -3.99532603
       -3.92160916     8.71933433     0.00634407
PRIMCOORD
56 1
Li     -3.93825306     2.07206051    -1.82769006    -0.01082590     0.05230326    -0.67237604
Li     -4.18358288     2.36163751    -6.06280875     0.56249082    -0.34519292     0.55134126
Li     -7.68235639     2.15053102    -9.96336549    -0.76508929     0.00573630     0.15630921
Li     -8.06131284     2.18456536    -5.87994049     1.32736807     0.57984563     0.10496443
Li     -3.92985348     6.40643512    -1.96774010     0.19572807    -0.13751449     0.01615938
Li     -4.03501239     6.31018223    -5.82809239     0.09784112    -0.02133849    -0.61054057
Li     -7.90615406     6.58928478    -9.80488523     0.07993374     0.01050651    -0.69874548
Li     -7.76370031     6.24423840    -5.97921480    -0.19602202     0.20912712    -0.01440702
Ti     -1.98185628     2.43163973    -4.02021672    -1.28712503     0.31069631    -0.38868897
Ti     -5.81302534     6.77079629    -7.98399187    -0.86149556    -0.44240712     0.88715484
Ti     -7.63491238     4.36533193    -7.83553463    -0.50679947     0.31308824    -0.47733165
Ti     -7.85630934     4.31918580    -3.69795776    -0.63586307     0.12070359     0.43071801
Ti     -3.87630304     4.30038096    -7.76205176     0.15960103     0.30661549     0.15790117
Ti     -4.11687974     4.41726800    -3.71469487     0.33651830    -0.10176404     0.84027518
Ti     -1.74385396     0.03264708    -2.25180745    -1.74204099     0.39612416    -0.01623529
Ni     -5.97382503     2.16663788    -8.01781895     0.03139966    -0.22027900     0.13400521
Ni     -5.86719770     2.19214206    -3.93304795    -0.15810257     0.35783450    -0.49160975
Ni     -9.87016243     6.39580690    -8.01196073     0.38306780    -0.15032333     0.12098698
Ni     -9.85449019     6.76619089    -4.03351947     0.52901363    -0.65494244     0.07807361
Ni     -1.92741858     1.98705081    -7.84704001    -0.35244119     1.35313768    -1.05286330
Ni     -6.00701627     6.70926234    -4.01750586     0.11540874    -0.58471583    -0.16774019
Ni     -1.85154388     0.13254809    -5.93711163    -1.22617054    -3.24715023    -0.65743515
Mo     -9.91411066     8.64636207   -10.27448563     3.08387997     0.46343289    -0.42824177
Mo     -9.73390600     8.73670734    -6.32118366     2.66446761     1.39574950     1.53898242
O      -2.02942790     1.99496644    -2.17870461     0.29211611    -1.06651456     1.60194345
O      -2.00921978     1.85131746    -5.99398300     0.55151426     1.83867409     0.40337028
O      -5.84933195     6.87679387    -1.95318688    -0.60621678     0.07767864    -0.62179570
O      -5.89686964     6.93729397    -6.01191778     0.18837579     0.70265966     0.80670029
O      -5.86139078     2.01559080    -9.91600291    -0.34923960    -0.71444507     0.17820426
O      -6.05005201     1.88406917    -6.09345893    -0.28046494     0.96133190     0.28739612
O      -9.92854319     6.75209747   -10.03906506     0.55714368    -0.34290119     0.04017183
O      -9.83801370     6.82104372    -5.99380425    -0.02379915    -0.18620500     1.36262562
O      -3.90928387     2.49217112    -3.94819050    -0.59621765    -0.60965857    -0.45003148
O      -4.13051698     2.39446867    -8.01980948     0.12189716     0.17469113     0.90932111
O      -7.74767760     2.29651582    -3.85624808    -0.35105271     0.41957827    -0.39181541
O      -7.93787998     2.40585094    -8.04617067     1.36047544    -0.18663511    -0.16128920
O      -4.06705494     6.37096422    -3.99521161     0.52729627    -0.37019785     0.43671020
O      -3.91428560     6.35209550    -7.94418624     0.63986638     0.44751412    -0.08471062
O      -7.87389231     6.22539009    -4.08981326    -0.48744203     1.13556164     0.20267742
O      -7.80178018     6.31933631    -7.96174642    -0.72550778     0.83187331     0.38045654
O      -3.76328224     4.38757438    -1.95756844    -0.64947972     0.39760258    -0.30067545
O      -3.88162746     4.26534050    -5.93630531     0.22804209     0.61529511    -1.27699980
O      -7.79448161     4.65283626    -9.93689311    -0.03670581    -1.04864487    -0.65976697
O      -7.51848692     4.34309804    -6.11583520    -0.77638521    -0.21744877     1.43063577
O      -4.12403742     0.06483655   -10.00083070    -1.05047080    -0.65868446    -0.06563852
O      -4.04858652     0.29770591    -6.07022546    -1.35183859    -1.12192006    -0.17120446
O      -7.81769240     0.06458565    -6.09034163     0.33472878    -0.00850929    -0.05082033
O      -7.72339813     0.05508546    -9.87401742    -0.76061482     0.52510717     0.11236138
O      -9.76834121     4.34292281    -7.83142214    -0.12180617     0.29535530    -1.10422216
O      -1.91119399     3.93131392    -7.97245408    -0.11223974    -0.56062862     0.17620533
O      -5.93281410     4.19231541    -4.04533264    -0.12306295    -0.53849472     0.52993046
O      -5.80778759     4.80859255    -8.05064483     1.19677047    -0.19997833    -0.22106235
O      -2.11633438     0.24458150    -4.05148976     0.40152088    -0.06251349    -0.03234575
O      -1.98042456     0.05008876    -7.94357505     0.56691780    -0.15391616    -0.40738896
O      -5.98318813     0.18767918    -4.11669429     0.02937312     0.39932832     0.15231941
O      -9.80138327     8.29084408    -7.99745789    -0.40787538    -0.94428890    -2.36130280
