# total energy = -630.40325818 eV

CRYSTAL
PRIMVEC
        0.00279571     0.02951795    -7.98606283
       -7.83802570     0.01298533    -3.99532603
       -3.92160916     8.71933433     0.00634407
PRIMCOORD
56 1
Li     -4.02359210     1.96080189    -1.87394197     0.78905333     0.43811479    -0.14047427
Li     -4.09296131     2.53911976    -5.93001672     0.50948389    -0.28262829     0.16288304
Li     -7.87654840     2.31198503    -9.87843426     0.51447830    -0.17493964    -0.33888114
Li     -7.78621652     2.53092360    -5.79742285    -0.19475365    -0.38677952    -0.02571487
Li     -3.88141545     6.43745206    -1.97952436    -0.09475250    -0.15692612    -0.05593620
Li     -3.94826166     6.25521336    -5.89103644    -0.01710018     0.95011335    -0.26465655
Li     -7.97238557     6.89821319    -9.87425808     0.81694982    -1.32190610    -0.50769202
Li     -7.94100795     6.42545208    -5.97457579     0.00049114     0.07249479    -0.08570708
Ti     -2.00358115     2.29301834    -4.04815680    -1.06022162    -0.36986372     0.44090326
Ti     -5.94280708     6.61052739    -7.95895385     0.61906154     0.53874217    -0.45135454
Ti     -7.81081184     4.35965263    -7.71579536    -0.08541730    -0.00968999    -2.37828964
Ti     -8.02736087     4.45666083    -3.63176331     1.52509112    -0.55114120    -0.10986509
Ti     -3.91726473     4.37897521    -7.80940695     0.18515559     0.21717895    -0.64489674
Ti     -4.14398583     4.48726008    -3.76702794    -0.07937649    -2.63713454     1.50442045
Ti     -5.55969701     8.72550755    -2.09948438    -2.64762781    -0.12556388    -0.72485278
Ni     -5.81153756     2.04656162    -7.91176644    -0.22915629     0.04793936    -1.11032906
Ni     -5.87447652     2.27973932    -3.88902462    -0.78881513    -0.39749646    -0.38278797
Ni     -9.82140354     6.41498851    -8.10211606    -0.80876490     0.15979463     0.65025133
Ni     -9.84096374     6.76901188    -4.05257349    -0.49327670    -0.68651348     0.08683670
Ni     -2.04576902     2.18188089    -7.94083710     1.28601862    -0.01303248    -0.11307572
Ni     -5.96429101     6.57283964    -4.07455039    -0.06967564     0.33463565     0.32159477
Ni     -5.81542704     8.71252022    -6.00505181    -0.58390427     0.82096956     0.82892736
Mo     -9.85701837     8.64237996   -10.32752474    -1.54655465     1.04964674    -0.24235463
Mo     -5.71598165     0.11087821    -6.26192986     0.37319793    -0.59769433    -1.20197399
O      -2.10966693     1.85270954    -1.89385083     0.81536028     0.12677968    -0.32253619
O      -2.05980187     1.86189415    -5.95247590     1.07057778     0.18720484    -0.42892193
O      -5.80133823     6.76954452    -2.17791826    -1.11103424     0.64587687     1.06475567
O      -5.91748782     6.85426535    -6.03305518     0.11684754    -0.24561654     0.62311098
O      -5.82809531     1.86984488    -9.83663097    -1.03401233     0.07120324     0.28841234
O      -5.93595806     2.00588344    -6.11422892     0.23570668     0.14494937     1.35374248
O      -9.88061515     6.73577687   -10.15248973     0.37250362    -0.45055201     0.51271245
O      -9.92641837     6.91655691    -5.90285146     1.23807037    -0.12753723     0.03576239
O      -3.90459255     2.51525416    -3.99068040    -0.36601907    -0.88051431    -0.26807330
O      -3.87465405     2.32385243    -7.84835646    -1.49686408     0.94282295    -0.42686709
O      -7.85012407     2.44830050    -3.89471118    -0.49477561     0.01671101     0.03544003
O      -7.88154583     2.38380242    -7.86340534     0.21859995     0.46886734    -0.32996019
O      -3.99691971     6.28654337    -3.93115202     0.60575084     1.92711521    -1.08848950
O      -3.91555423     6.42163150    -8.06316048    -0.35863781    -0.67343096     0.69009976
O      -7.93356251     6.35993973    -4.12524674     0.50082116     0.12097086     0.96072128
O      -7.92793412     6.40298447    -8.05556046     0.93567997    -0.60628478     0.67559407
O      -3.69889791     4.26753726    -2.03781095    -1.07700690     0.59474509     0.17456769
O      -3.89886635     4.43061539    -5.99991228     0.30816801    -0.39041487    -0.34589629
O      -7.73031701     4.39686261    -9.87982246    -0.44228899    -0.05635778    -0.05622557
O      -7.58634852     4.43933323    -6.01565721    -0.55498690     0.22917979     1.23400024
O      -8.05466023     8.64835124   -10.06978076    -0.43496815     0.46950930     0.23133344
O      -3.97321886     0.05962219    -6.20559432    -0.28901497    -0.08134161     0.60454228
O      -7.78298802     0.02592840    -6.02157088     1.93696302     0.54396351     0.05239830
O      -3.88195766     8.64903681    -5.89377841     1.51977132     0.28600625    -0.74429366
O      -9.76124849     4.33202207    -7.99427500     0.16957380     0.10556562    -0.25707825
O      -1.96403198     4.21927759    -0.10564523    -0.63070368    -0.47426314     0.49249869
O      -5.98656031     4.09064957    -3.99327952     0.42705619     0.72040035     0.40775817
O      -5.79428040     4.58457199    -8.00088970    -0.73994048     0.94592755    -0.28065374
O      -2.07162938     0.33024289    -4.04301622     0.37810102    -0.23907040     0.49413517
O      -5.91129100     8.55098182    -7.88460005     0.19474639    -0.70966303    -1.34531420
O      -5.89428907     0.40443409    -4.16519213    -0.08697596     0.08808204     0.71279348
O      -9.90895267     8.32405182    -8.02141015     0.23333687    -0.84832673    -0.12676601
