# total energy = -631.22538118 eV

CRYSTAL
PRIMVEC
        0.00279571     0.02951795    -7.98606283
       -7.83802570     0.01298533    -3.99532603
       -3.92160916     8.71933433     0.00634407
PRIMCOORD
56 1
Li     -4.00478052     1.97113304    -1.88722647     0.21870086     0.28466204    -0.10797213
Li     -3.87438404     2.32099037    -6.08940840     0.02890840     0.14272182     0.18178352
Li     -7.84971041     2.05748680    -9.96923718     0.08068275     0.35600208    -0.03601293
Li     -7.83469696     2.29193276    -5.92548679     0.04590503     0.16647859     0.02934918
Li     -3.77882486     6.45337919    -2.05450071    -0.26509935     0.46773214     0.25485087
Li     -3.99984558     6.77035166    -5.92005390    -0.06126922    -0.36047847     0.01304633
Li     -8.03834493     6.43750786    -9.92285941     0.78101106    -0.06083079    -0.13021867
Li     -7.90353548     6.42681682    -5.89538698    -0.04069527    -0.17509283     0.02376107
Ti     -2.01423374     2.01090927    -3.96052189     0.71227889     1.67352800    -0.25395354
Ti     -5.92522712     6.62942535    -7.93471677     0.44881688     0.45550263     0.09019988
Ti     -7.85510019     4.37993638    -7.83920283     0.08626756     0.02453697     0.48916342
Ti     -7.73265299     4.30376392    -3.73903800    -0.86451215     0.37663133     0.06473131
Ti     -3.91852067     4.41490693    -7.79819085     1.36477377    -0.63572391     0.33780250
Ti     -3.89255528     4.40088659    -3.79031787    -0.81531080     0.31536652     1.10279591
Ti     -5.68540773     8.68247597    -1.98631757     0.65889519     0.51595752     0.99837904
Ni     -5.96112702     2.10836509    -7.91542498     1.09584572     0.50546886    -0.63732800
Ni     -5.85288665     2.30807138    -3.92258194     0.27627677    -0.56553812    -0.55933066
Ni     -9.88490537     6.37869000    -8.07611927     1.18649433     0.58417647     0.37845212
Ni     -9.81390161     6.54732378    -3.96557142     0.12780513     0.16118686    -0.21476534
Ni     -1.88564860     2.17905212    -7.96245891    -0.37509353     0.19379969    -0.08537743
Ni     -5.97775316     6.65609190    -3.99538558     0.28649427    -0.32401969    -0.05096534
Ni     -2.05591229     0.07859612    -5.95861101     0.97600736    -0.04673631    -0.70335631
Mo     -9.86606209     8.73625652   -10.31180777    -0.57835936     0.33125791    -0.26034757
Mo     -5.78528494     0.10112920    -6.35178025     0.46904093    -0.88725631     0.57594197
O      -1.95695880     1.98507941    -1.98101620    -0.04453438    -0.70287473    -0.23943530
O      -1.85538151     1.89677037    -5.99504583    -1.53083470     0.41423395    -0.04358790
O      -5.91165047     6.78603147    -2.06244502    -0.14555633     0.73113620     0.43188209
O      -6.01024417     6.95018736    -5.92576362     0.18379026    -0.28313012    -0.37215488
O      -5.96589277     1.92827826    -9.83917139    -0.01684941    -0.15156137     0.37936404
O      -5.81040886     1.96402356    -5.96471863    -0.65615908     0.76598973    -0.63297250
O      -9.84758163     6.83338434   -10.06452791    -0.63669587    -0.52727821    -0.19370098
O      -9.71842997     6.91263526    -5.84117832    -1.07001328     0.12668176     0.26559311
O      -3.86104204     2.41920759    -3.91030918    -0.37463922    -0.44332023    -0.34320413
O      -4.09914983     2.43348809    -8.09292056     0.16946647     0.43909400     1.19032346
O      -7.74338369     2.34797760    -3.96781950    -0.24049202     0.28669078    -0.40906273
O      -7.83219186     2.45663902    -8.03890429    -0.69170570    -0.66747638     0.91280594
O      -3.88028391     6.31277036    -4.04148792    -1.28325334     0.88878813    -0.19050267
O      -3.93317819     6.42717322    -7.92740559    -0.08591021     0.21140168    -0.17590125
O      -7.88581971     6.29668297    -3.90006660    -0.08117568     0.01438607    -0.31506107
O      -7.93657263     6.33983957    -7.90280626     0.47336001     0.60136424    -1.08414757
O      -3.95316170     4.66927960    -2.02752430     0.43357292    -1.17829014    -0.06872641
O      -3.94107366     4.46777388    -6.02334724    -0.59521093    -0.38635270    -0.78154343
O      -7.84570820     4.29794683    -9.98759464    -0.04326824     0.63298708     0.84075291
O      -8.02760737     4.44058333    -6.07614570     0.59598148    -0.55749844     0.02967770
O      -4.16155602     0.05663060    -9.93827556     0.19572816    -0.15913362    -0.54327244
O      -4.00448823     0.07427045    -6.11182011     0.42908255     0.56634994    -0.21255215
O      -7.73778087     0.10876351    -6.13054500    -0.28621537    -0.21219568     0.08427522
O      -0.04856218     0.04776794    -6.06112028     1.58358771    -0.43425555     0.18823431
O      -2.02793112     4.39108942    -4.17874254     1.07792811     0.08538163     0.29288604
O      -1.91067297     4.12899251    -7.87919237    -0.88468515    -0.46107967    -0.72776017
O      -5.85281006     4.24541926    -3.96205092     0.04169311    -0.62643927    -0.63398157
O      -5.86465215     4.78408951    -8.10151529    -0.92424428    -0.36211044     0.49650697
O      -1.99626851     0.22154131    -3.93706932    -0.37972663    -0.87656458     0.11605386
O      -5.73576935     8.69811273    -8.06861135    -0.81378878    -0.57045803    -0.53774206
O      -5.87954300     0.33650346    -4.12357138     0.00256983     0.35691531     0.59498862
O      -9.84137697     8.32423494    -8.09015349    -0.32472786    -1.12243009     0.03902378
