# total energy = -630.52880395 eV

CRYSTAL
PRIMVEC
        0.00279571     0.02951795    -7.98606283
       -7.83802570     0.01298533    -3.99532603
       -3.92160916     8.71933433     0.00634407
PRIMCOORD
56 1
Li     -3.97468799     2.03196209    -2.03625107    -0.05780710     0.15177488     0.38282548
Li     -3.96786480     2.68021813    -5.99881875    -0.06684315    -1.34945105     0.21001977
Li     -7.85293350     1.99219641    -9.97218170     0.06299244     0.73351395    -0.23700278
Li     -7.66913704     2.21445639    -5.91752179    -0.72568530     0.34604323     0.30967785
Li     -3.81732890     6.54799790    -2.00173092    -0.34892771    -0.26212227     0.13948190
Li     -3.89743997     6.38092360    -6.00259611    -0.43513853    -0.02877950     0.12249875
Li     -7.86808061     6.46390715    -9.90416596     0.19399279    -0.15173199    -0.15659224
Li     -7.72802206     6.25927673    -5.87203186    -0.82667951     0.17469108    -0.32176727
Ti     -1.91955338     2.31337595    -3.98287773    -1.01699159     0.86846712    -0.28747824
Ti     -5.78358698     6.82408882    -7.96926295    -0.01129277    -1.52614975     0.58559654
Ti     -7.59259749     4.36343731    -7.70742490    -1.09107557     1.38273073    -0.07380000
Ti     -7.93205836     4.35530256    -3.74615092     0.73503116    -0.65591884     0.16887691
Ti     -3.78843190     4.37133066    -7.88207096    -1.24148172     0.32983213    -0.43231042
Ti     -4.10706286     4.44426427    -3.71388609     0.44594009    -1.22032730     1.54878189
Ti     -1.98324794     0.05638635    -2.12993877    -0.81893753    -1.05012420    -0.35666834
Ni     -5.85604455     2.16455983    -7.97067611     0.09385772    -0.17371497     1.50535942
Ni     -5.84474232     2.19324208    -4.04391175    -0.56313868     0.02960362     0.50627986
Ni     -9.84399871     6.39077001    -8.17149535     1.65899057    -0.70852454     2.10423357
Ni     -9.74148288     6.70690082    -4.05524315    -0.00990468     0.06237104     0.75325423
Ni     -1.97571585     2.08915324    -8.00315195    -0.03166964     0.09446184     0.51571486
Ni     -5.85849748     6.65461025    -3.97668197    -0.57017532    -0.11100624    -0.55473245
Ni     -2.11272521     0.14347815    -5.99805212    -0.11461254    -2.62237531     0.41033838
Mo     -9.89852953     8.64987986   -10.18605436     1.06473907     0.23804003    -0.97022573
Mo     -5.84948880     0.04284165    -6.29525736     2.04308501     0.49020129     0.73184307
O      -1.96992630     1.92558368    -1.93101910     0.07287198     0.31498753    -0.85427096
O      -2.10542032     1.89023256    -6.04058324     0.87661644     1.51945815     0.19673329
O      -5.89835056     6.74664911    -2.03473939     0.55050932     1.41716689    -0.04277240
O      -5.99416077     6.88001321    -5.94764910     0.92996608     1.26330681    -0.09546139
O      -5.85111438     1.85004485    -9.75610722    -0.64524310    -0.63782930    -1.16506298
O      -5.82891245     2.04277198    -5.97294391    -0.03943932    -0.39856766    -1.09297301
O      -9.79860569     6.63709783   -10.10528705     0.00241880     1.38008449    -0.08038866
O      -9.79747428     6.77086723    -5.89934402     0.28414839     1.08677797     0.00555029
O      -3.89072150     2.39450173    -4.03123330    -0.08921410     0.80375525     0.65727864
O      -4.03529766     2.38347594    -8.05684980     0.58451572     0.69430978     0.42426104
O      -7.80974450     2.38555726    -3.95512699     0.20403180    -0.97724275    -0.16787772
O      -7.78978990     2.46551468    -8.00171317    -0.49069736    -1.20892790     0.04063264
O      -3.82902868     6.29358854    -4.06035291    -1.50191007     0.36110570     0.23314861
O      -3.82438023     6.58568507    -7.95809618    -0.84902837    -0.84768486    -0.31342411
O      -7.79438790     6.27805876    -3.99031978     0.02383588     0.49036286     0.36216932
O      -7.89913955     6.29043241    -7.90176367    -0.34858395     0.21369316    -0.78199065
O      -4.19447875     4.48170730    -1.88757250     0.51122673     0.21929885    -1.60238960
O      -4.08376428     4.45272304    -6.10898032     0.29914335     0.53407868     0.06454949
O      -8.06484769     4.29407168    -9.97711376     0.00270901     0.47812734     0.60576685
O      -7.92079687     4.30731981    -5.95258760     0.47944103    -0.01603234    -0.44542015
O      -7.94422575     8.72510473    -9.93533438     0.29936267    -0.31880172    -0.28727209
O      -4.03523768     0.16732561    -6.04698616    -0.50218543    -0.55314877    -0.34040684
O      -7.65128164     0.20994234    -6.03725855    -1.54527938    -0.71993548    -0.05679753
O      -7.76349777     0.03977044    -9.91602621     0.42521567    -0.36073606    -0.33198618
O      -2.10877317     4.24344267    -3.79479885     0.68871251    -0.05667070    -1.04291021
O      -2.00178580     3.97352745    -0.11294460     0.63503318    -0.04836143     0.14085064
O      -5.94961366     4.06511674    -3.93800962    -0.05415206    -0.19847058    -0.34565615
O      -5.86392079     4.79519377    -8.02209677     0.91748737     0.24881046     0.27082033
O      -2.02033403     0.33863527    -3.98274563     0.23411833     0.02258767     0.46692738
O      -5.83464824     8.67288403    -8.05424526    -0.08387555     0.55921290    -0.08936397
O      -5.83144547     0.21292751    -4.03572697    -0.28143678     0.60790098     0.74708789
O      -9.81400864     8.23481975    -8.00303478    -0.00090505    -0.48633845    -1.68291789
