# total energy = -630.72702846 eV

CRYSTAL
PRIMVEC
        0.00279571     0.02951795    -7.98606283
       -7.83802570     0.01298533    -3.99532603
       -3.92160916     8.71933433     0.00634407
PRIMCOORD
56 1
Li     -3.74398192     2.59208617    -1.69505150    -0.71087787    -1.03397629    -0.68641124
Li     -4.04289684     2.26070017    -5.94354838     0.48430147     0.06423781     0.15242621
Li     -8.01461692     2.46503940   -10.17510318     0.93950621    -0.10227754     1.48178199
Li     -7.82457866     1.75375707    -5.88567415    -0.19875508     1.06957993     0.51766321
Li     -3.80363939     6.62141914    -1.97780504    -0.23849734    -0.01911872    -0.03819633
Li     -4.15986342     6.29344133    -5.98876595     0.84797288     0.33181153     0.41336399
Li     -7.83123002     6.38374424   -10.01124819    -0.08311478    -0.00883628    -0.24698261
Li     -7.85894601     6.56671597    -5.89276555     0.28610556    -0.21564827    -0.15495135
Ti     -1.93472333     2.30015896    -3.91190609    -0.39368048     1.55912598    -0.28618554
Ti     -5.96181305     6.80388519    -8.07404433     0.62836995    -0.97601289     0.58149104
Ti     -7.64692321     4.36938553    -7.71580434     0.44855906     0.65125290    -0.55775343
Ti     -7.87978709     4.38804176    -3.82201381     0.87299929    -0.81789073    -0.21685862
Ti     -3.81263609     4.41745570    -7.67959162    -0.61984481    -0.14207736     0.09454285
Ti     -4.03143582     4.44879303    -3.66294325    -0.51132971     0.04692249    -1.82326821
Ti     -2.12199030     0.02530938    -2.14179851    -1.34570991     0.52027500     0.17855446
Ni     -5.95978526     2.10951956    -7.89347112     1.07003312     0.21427192    -0.54579473
Ni     -5.88158831     2.24270099    -4.05637304    -0.38329621     2.59596344     0.48784901
Ni     -9.74891808     6.24827033    -8.09187558     0.25776610     0.37650442    -0.61757681
Ni     -9.78440489     6.74185387    -3.96599590     0.04152122    -0.46052829     0.04701948
Ni     -2.00840603     2.15025193    -7.89045565     0.46828300    -0.95137882    -0.51928849
Ni     -5.93622223     6.64363293    -4.05851345     0.09295362     0.13002720     0.42231358
Ni     -1.93580474     0.04267036    -5.99935545     0.21870141     0.14408550     0.24834742
Mo     -9.91756896     8.70595111   -10.23602751    -0.23943264     0.52298818     0.03838158
Mo     -9.72552619     8.68006937    -6.37987655    -0.78057126     0.68299544    -0.16346617
O      -1.94419947     1.98130137    -1.88081278     0.31426720    -0.06613825    -0.70255207
O      -1.89615718     1.87324954    -6.03231758    -0.82043688     0.01411031     0.16669937
O      -5.88487809     6.81279350    -2.03768271     0.22557734    -0.19118436    -0.76442564
O      -5.87396282     6.91862409    -5.93873893    -0.83810878     0.38061425     0.05787988
O      -5.96431063     1.87376986    -9.71109450     0.13426112    -0.73752431    -0.51349845
O      -5.94278765     1.91650268    -6.05796860     0.06462491    -0.09701798     0.50570620
O      -9.70883993     6.73726497   -10.17212336    -0.73410106     0.53676000     0.99415994
O      -9.69606909     6.90564035    -5.73893065    -0.82398181    -0.58236244    -0.99178823
O      -3.82871593     2.50912943    -3.86033860    -0.54145011    -0.60390344    -0.51318016
O      -4.05169534     2.34904673    -7.85738477    -0.06443085     0.92583782    -0.33788006
O      -7.87370958     2.37781400    -3.95145675     0.61339072    -0.25404647    -1.17083795
O      -7.81838976     2.48846532    -8.05013461     0.03939877    -0.46310589     0.74324481
O      -3.79437934     6.34320095    -4.00344822    -0.91681652    -0.83938747     0.12380853
O      -3.92673647     6.36730180    -8.04513412     1.08073113     0.38107353     0.81214246
O      -7.86343139     6.28855615    -4.00066360     0.35753897     1.34340294    -0.04494198
O      -7.80638483     6.35808325    -8.12477588    -0.69047959    -0.04371686     0.79778541
O      -3.93530491     4.37520039    -1.93553236    -0.13148677     0.42348257     1.13302438
O      -4.02455092     4.30508402    -5.93564162     0.48444199     0.25972570    -0.30295262
O      -7.90871750     4.42626007   -10.04337650     0.38800860     0.03415433     0.57200617
O      -7.96934182     4.50896575    -6.02187727    -0.20189264     0.14837199     0.46593282
O      -3.98001597     0.05837284    -2.15734561     0.14522021    -0.55613848     0.06152745
O      -4.02212367     0.05226362    -6.05779815     0.72475020     0.28100450     0.10066701
O     -11.59099280     8.70845318    -6.12255189     0.13577509    -0.60871506     0.00236293
O      -3.86553062     8.57317799    -6.11601329     0.03105327     0.26568769     0.31917375
O      -9.76044997     4.33950625    -8.09931823    -0.50453850    -0.01353760     0.54295451
O      -1.93574984     4.01311182    -7.90239328    -1.33774901    -0.01737471    -0.33434138
O      -5.96223816     4.14216585    -4.10019693     1.18119166    -0.21013851     0.49786753
O      -5.80306237     4.87009686    -7.78579425    -0.50592948    -0.71881657    -0.71504650
O      -1.88193763     0.47678141    -3.93684654     0.07699828    -1.55000901    -0.95098790
O      -5.91219776     8.70759622    -8.17512099     0.14091799    -0.03269349     1.01039510
O      -5.94841223     0.49121310    -4.00654717     0.40999896    -1.63989388    -0.35547563
O      -9.75701186     8.12725056    -8.13204445     0.25829401    -0.20281942    -0.07108845
