# total energy = -630.66809529 eV

CRYSTAL
PRIMVEC
        0.00285542     0.02004370    -7.95977623
       -7.82940539     0.00763210    -3.98158109
       -3.91729101     8.74642787     0.01461334
PRIMCOORD
56 1
Li     -4.10212934     2.45013944    -1.87625869     0.73397974    -0.24460024     0.09881327
Li     -3.84062622     2.41104842    -6.07557112    -0.75720413    -0.57844010     0.74358553
Li     -7.89610775     2.45971041    -9.97166090     0.27920518    -0.49447063     0.35512579
Li     -7.63599884     2.33025875    -5.96888094    -0.78524874     0.32373278    -0.06145859
Li     -4.10986144     6.42917669    -1.98313071     1.35442905     0.19569404     0.27800341
Li     -3.98496554     6.50021846    -5.82476570     0.48239825     0.09236952    -0.06120251
Li     -7.94769711     6.46040686    -9.80888222     0.36352527     0.13372047    -0.38471067
Li     -7.90482282     6.63029759    -5.75212698     0.30803852    -0.05377730    -0.56510449
Ti     -2.02100264     2.07389501    -3.99133158     0.13952349     3.10819806     0.41961073
Ti     -5.81114534     6.48371375    -7.92438417    -0.64121151     0.73875668     0.00460219
Ti     -7.91408702     4.47557938    -7.72824188    -1.04731935    -0.10941924     2.00572422
Ti     -7.75762317     4.40876696    -3.73750364     0.23571822    -0.35118445    -0.76937381
Ti     -3.66959429     4.40467960    -7.63498254    -0.55430689    -0.47580597    -1.65603491
Ti     -3.99289392     4.42630699    -3.67423916     1.04006486    -0.77684654     0.86909038
Ti     -2.10318244     0.03688953    -2.02263435    -1.33167884     0.49536508     1.57026601
Ni     -5.87434409     2.53562228    -8.02975843    -0.17374112    -0.87268663     0.29350273
Ni     -5.88333636     1.99536454    -4.04838602     0.86209769     0.33348254     0.39604253
Ni     -9.81697775     6.57017676    -7.89966526     0.54666027     0.40942033     0.37842036
Ni     -9.79022228     6.53587344    -3.95572683     0.63432761     0.53224332    -0.42386668
Ni     -1.76434175     1.87384985    -7.90703942    -0.58167675     0.44892687    -0.42471480
Ni     -5.80640754     6.59568599    -4.00662045    -0.71696200    -0.01330710     0.97196414
Ni     -5.87871206     8.67347156    -5.95202524    -1.06648092     1.24059800    -0.32846179
Mo     -5.98604650     0.09244488   -10.28047909     0.11125977     0.31682660     0.01353028
Mo     -9.82641144     8.72873954    -6.40074487     1.86892272    -0.30980144    -0.42538876
O      -2.01994998     2.01118291    -1.85949307     0.85284948    -1.77345753    -0.37466293
O      -2.03068024     1.78452022    -5.87896702     0.85075215     0.22505024    -1.72649314
O      -5.85374682     6.85704207    -1.92842973    -0.93271333     0.05857460    -0.48197389
O      -5.89164122     6.85889240    -5.96500249     0.31118259    -0.08392642     0.28455590
O      -5.90884789     2.04155179   -10.15022788    -0.67673391    -0.39297998     0.50140206
O      -5.82368071     1.90372503    -5.89424043     0.32795613     0.03451670     0.02063009
O      -9.79229762     6.95825101    -9.74591682    -0.26417833    -0.11500548    -0.27630817
O      -9.77178369     6.79222302    -6.07332210    -0.48288205    -0.13185443     0.69523119
O      -3.98620562     2.41583835    -3.85540245     0.50378345     0.17684808    -0.63241951
O      -3.88383428     2.49704090    -7.93153187    -0.34092391     0.62057484     0.01489166
O      -7.65636770     2.33552150    -4.08519239    -1.84164047     0.58101980     0.83937768
O      -7.89175922     2.58680387    -7.93326158     0.88579886    -2.02972289    -0.33715346
O      -3.84377793     6.39173511    -3.87084755    -0.35200748    -0.30470257    -0.59414321
O      -3.91942449     6.44530234    -7.97617645     0.09986243    -0.68369011     0.80432790
O      -7.75988760     6.33777621    -3.86842390    -0.42519060     0.70308857    -0.07504004
O      -7.82375820     6.41167755    -7.86080296    -0.28986538    -0.25105018    -0.79952200
O      -4.07610867     4.46864333    -1.84331951     0.23107398    -0.26435562    -1.75658274
O      -4.02875205     4.39411343    -5.91723441     0.25634217     0.38706198     0.47706271
O      -7.79137423     4.32138588    -9.92719245    -0.33531720     0.32291828     0.03358015
O      -8.01179488     4.38919832    -5.93315964     0.49310286     0.03818863    -0.75008209
O      -4.06976987     0.15148866    -9.95059631     0.79869833    -0.48425414    -0.34544550
O      -7.97672522     8.65739489    -6.16191805     0.20737454     0.12103274     0.35931334
O     -11.58638006     8.68966172    -6.08897789    -1.62408369     0.35991047     0.40787965
O     -11.72908700     8.75245753   -10.04499534     0.90457550     0.18804380    -0.21913208
O      -2.00811388     4.10224956    -4.07105473    -1.05198005     0.26828990     0.19446031
O      -9.69034372     4.66702760    -3.91410469    -0.47637853     0.05174871     0.23075294
O      -5.87534537     4.65265714    -4.00555861     0.27086626     0.14929873    -0.26630179
O      -5.91161611     4.45711628    -7.88611999     0.31063614     0.70059456    -0.14466525
O      -2.03480035     0.23909482    -3.97539731     0.23659349    -2.18853544     0.66204633
O      -5.97494110     8.49067202    -7.94901801     0.66034661    -0.09515758    -0.98230596
O      -9.69034178     8.41217150    -4.13307406    -0.55245464    -0.13760312     1.21582435
O      -5.98231763     0.60235091    -8.14790398     0.19079925     0.99548371    -0.04458554
