# total energy = -630.38478601 eV

CRYSTAL
PRIMVEC
        0.00279571     0.02951795    -7.98606283
       -7.83802570     0.01298533    -3.99532603
       -3.92160916     8.71933433     0.00634407
PRIMCOORD
56 1
Li     -3.94437298     2.17453756    -1.92602456    -0.42619814     0.42092375     0.10190487
Li     -3.86140185     2.28792474    -5.97002741    -0.36354881     0.05199807    -0.15707402
Li     -7.85467345     2.22595601    -9.93488771    -0.04830985     0.06132216     0.00639524
Li     -7.77686025     2.08901828    -5.80426284     0.02641098     0.13533728    -0.20594339
Li     -3.89951102     6.47402995    -2.03351482     0.26146760     0.07366745     0.25833828
Li     -4.04163747     6.35306247    -5.88082565     0.01723778     0.35289945    -0.29469267
Li     -7.89411921     6.75579983    -9.93760253     0.22197415    -0.78138009    -0.15499418
Li     -7.82944609     6.30257785    -5.94101144    -0.24244492     0.51556073     0.03144809
Ti     -1.98119813     2.19149834    -3.83909302     0.82268590    -0.31065680    -0.23001639
Ti     -5.87173520     6.61032643    -7.95896078    -0.95883232    -0.42599092    -0.11996493
Ti     -7.80125846     4.37878867    -7.81372702     0.03723845    -0.13043158    -0.70995516
Ti     -7.73300039     4.35131847    -3.68995827    -1.30161082     0.32149566    -0.17691602
Ti     -3.94125742     4.41386436    -7.77165978     0.49348288     0.03484480    -2.09442999
Ti     -3.98646264     4.41641170    -3.80968701     0.13770782     0.04164482     2.12179224
Ti     -2.14543534     0.05092869    -1.97483269     0.79585588    -1.18440020    -0.22318669
Ni     -5.91591098     2.14491365    -7.88968520     0.76446719     0.29201923    -0.09883603
Ni     -5.85720983     2.21810634    -3.99920201    -0.16895917     0.58356266    -0.39236756
Ni     -9.87262495     6.38280199    -7.94615587     0.89716157    -0.79281776    -1.02954365
Ni     -9.74449984     6.52818091    -3.90939586    -0.87989647    -0.15472093    -1.30318675
Ni     -2.00256904     2.38875522    -7.88118379     0.28987603    -0.29926319    -0.96220240
Ni     -6.01279347     6.66569220    -3.96186945     1.10266459     0.09152011    -0.49063105
Ni     -1.97772259     0.04956552    -6.08959840    -0.12478844    -0.05103883    -0.40355195
Mo     -9.87965254     8.68851640   -10.24743729    -1.43097836     1.10827792    -2.15375571
Mo     -9.65241590     8.73036208    -6.43228232    -1.76876474     1.23878573     0.70923065
O      -1.94929122     1.98658909    -1.85258425    -0.29731774    -0.03101538    -1.20348191
O      -2.00743017     1.91571470    -6.13459025     0.40222797    -0.48208730     1.39303958
O      -5.74256021     6.83559732    -2.08614936    -1.17459251     0.75213045    -0.22421482
O      -5.97906062     6.89078360    -6.02472167     0.24042628     0.21705249     1.14692345
O      -5.92376151     1.87985143    -9.80325177     0.43565212    -0.31292273     0.43952492
O      -5.77941857     1.99293234    -5.96751276     0.01423963    -0.31953414    -0.89755804
O      -9.84112267     6.81320470   -10.03198974     0.31029270    -1.54721863    -0.54421789
O      -9.75204902     6.84477757    -5.95200361     0.05258457    -0.20606322     0.91682395
O      -3.88079791     2.47786134    -3.97686588    -0.16553645    -0.82132733     0.27176180
O      -3.97241897     2.48943221    -8.04281547    -0.36945163    -0.49529341     0.35178154
O      -7.89608290     2.46725847    -3.89380503     0.18812964    -1.06782567    -0.60143685
O      -7.86794642     2.31026512    -7.90735768    -0.17997621     0.69979870    -0.21274185
O      -3.97809744     6.30080686    -4.01496396    -0.00505057     0.76370624    -0.22289976
O      -4.03086507     6.42511841    -7.93563904     2.58958074    -0.66403034     0.07778416
O      -7.85422613     6.27736996    -3.97968328    -0.49120398     0.92204050     0.23981304
O      -7.79989215     6.34731152    -8.08491664    -1.48197969     0.20264389     0.47762057
O      -3.83397576     4.49392235    -2.00683633    -0.50975063    -0.45690852    -1.32916083
O      -4.11981154     4.34161169    -6.07721656     0.29850299     0.21960584     2.47084174
O      -7.75215559     4.37987250    -9.94979432    -0.33011525    -0.19580580     0.83840157
O      -7.98133722     4.47625863    -6.10177068     0.17182756    -0.56691874     1.39458668
O      -7.91302352     8.65287600    -2.16299814     0.30411017     0.38055207     0.99077084
O      -3.90393308     0.04174513    -6.35102472    -0.05772194     0.38179645     0.57681560
O      -7.55636948     0.19316171    -6.22594759     0.16643058    -0.69298204     0.14052658
O     -11.65143364     8.69861799   -10.09357497    -0.69043879     0.26226739     0.01093882
O      -1.94498283     4.31825631    -4.09422039    -1.16685377    -0.07004501    -0.25009579
O      -1.97873138     4.35372181    -7.87231756     0.08613960     0.55790284    -0.16413709
O      -5.91562322     4.30522045    -4.04586722     1.27296183    -0.98375924    -0.15716536
O      -5.95726458     4.69230793    -8.01467891     1.67249023    -0.90851999    -0.22120739
O      -2.11172354     0.30027980    -3.94934824     0.52385603     1.00527272    -0.23967823
O      -5.70659660     8.45329521    -8.10550655    -0.60211752     1.93473148    -0.30371224
O      -5.79376468     0.37963154    -4.16915892    -0.03902172    -0.77867928     1.77998126
O      -9.81731036     8.15035833    -8.23441312     0.36507645     1.20684223     1.10371952
