# total energy = -630.36909710 eV

CRYSTAL
PRIMVEC
        0.00279571     0.02951795    -7.98606283
       -7.83802570     0.01298533    -3.99532603
       -3.92160916     8.71933433     0.00634407
PRIMCOORD
56 1
Li     -3.89254746     2.27043458    -1.90179102    -0.26542819    -0.09399085    -0.10891735
Li     -3.84515524     1.98804570    -6.08188533    -0.32158611     0.48147586     0.19853083
Li     -7.82026808     2.02170952    -9.90607968     0.36064951    -0.06463520    -0.48389203
Li     -7.79150124     2.34688600    -5.79436068    -0.31106520    -0.01101608    -0.51631908
Li     -4.01601228     6.35719998    -1.97379573     0.55532770    -0.31741208     0.21319158
Li     -3.99921585     6.52018399    -5.96809058     0.19861440    -0.08891846     0.19674879
Li     -7.91025962     6.70792644    -9.83285013     0.38442570    -0.50774702    -0.27529852
Li     -7.65205662     6.37789646    -5.86316196    -0.86580446    -0.15249035     0.01463223
Ti     -2.00005282     2.25462182    -4.03955396    -0.02714546    -0.34649428     0.56628586
Ti     -5.94207228     6.73747113    -7.93315068    -0.44784119    -1.99393922    -0.09758757
Ti     -7.88970143     4.35256283    -7.71171361     1.18631866     0.68011081    -0.48929634
Ti     -8.04562121     4.42027831    -3.54429885     1.05642051    -0.35754809     0.22576046
Ti     -4.02473834     4.30434933    -7.70812976    -1.49491240     0.82582129    -0.55004999
Ti     -4.08890586     4.36389981    -3.78875317    -0.19061768    -0.32541008     0.56837963
Ti     -5.59437386     8.69513721    -2.07996412    -1.89874430     1.93288527    -0.32885207
Ni     -5.86479034     2.19963978    -8.05044920    -0.55361411    -0.39203320     0.37732571
Ni     -5.85975785     2.33962357    -4.16414330    -0.94552463    -0.00285919     1.30099948
Ni     -9.83986159     6.36146845    -8.13218563     0.38418761    -0.09687421     0.96483764
Ni     -9.85698638     6.52823311    -3.89889446     0.33010745    -0.20494305    -0.67723224
Ni     -1.96159582     2.29790494    -7.97527208    -0.48204136    -0.57588915    -1.07576367
Ni     -5.86186660     6.70421493    -3.94113962    -0.83957218    -0.60743187     0.08304216
Ni     -1.86380111     0.03746855    -6.04095552    -0.21762704     2.25213871    -0.29098184
Mo     -9.79333869     8.66535692   -10.32876718     1.22810108     0.87350399     0.76333560
Mo     -9.68735427     8.72299256    -6.29696781     0.00013560     0.53452053    -1.28009468
O      -1.99509555     1.97669250    -1.95308305     0.24105078    -0.42873173    -0.63141862
O      -1.93480004     2.00783415    -6.18878796     0.07178197    -1.44350464     2.09213672
O      -5.91089626     6.85079629    -1.97056458     0.25385439    -0.49808902    -0.86880827
O      -5.88778726     6.98613539    -5.99562295     0.45959985    -1.14050065     1.29477526
O      -5.78907335     1.85268169    -9.96925701    -0.55489369     0.80387913     1.30371275
O      -5.90688110     1.99497664    -6.15983039     0.16858893    -0.69743582     0.63472742
O      -9.82567734     6.76038468   -10.03238662    -0.72224290    -1.02138029    -0.44847156
O      -9.75115946     6.99522141    -5.75780534    -1.18439105    -1.55556548     1.05903404
O      -3.90661455     2.35756353    -4.03900338     0.55037315     0.46762741    -0.23573991
O      -4.03120258     2.39517981    -7.93730748     0.50507691    -0.55796281    -0.67659799
O      -7.91732657     2.43263081    -3.90776183     0.73446405     0.73600649     0.06539364
O      -7.84675727     2.36614922    -7.98823761    -0.23831450     0.59495419    -0.46864596
O      -3.97265753     6.24425863    -3.98211106     0.12636233     1.29511162    -0.33351841
O      -4.00189107     6.28195496    -7.96325893     0.85774772     0.76619204     0.05557774
O      -7.85412231     6.30317378    -3.99059886    -0.19534915     0.36691583     0.28579603
O      -7.89715495     6.37675210    -7.85436900    -0.09507775     0.31313340     0.08909689
O      -3.99413555     4.33827225    -2.02029482     0.63526814    -0.11358412     0.09500218
O      -4.03044605     4.30109611    -5.98100616    -0.17560456     0.28647247     1.08963978
O      -7.90634086     4.69991352    -9.79033362     0.07170356    -0.81074361    -1.70288280
O      -7.79554976     4.27669612    -5.97371186    -0.32093078     0.57437024     0.87452690
O      -7.97100561     8.58205135    -9.92908954    -0.57004800     0.61455694    -0.68149536
O      -7.95771486     8.70257640    -6.11632578     1.56679985     1.23835813     0.43004388
O      -7.75652295     0.07713726    -6.11216317     0.44893205    -0.13060093     0.23646017
O     -11.62153751     8.73440393   -10.09030818    -0.21018061    -0.34011690     0.73548934
O      -1.97583109     4.40976826    -4.14594497    -0.77024374    -0.87184261     0.68483287
O      -2.11593722     4.24983482    -7.88777632     1.50997804     0.26850481    -0.37068486
O      -5.95084452     4.16945576    -3.80882445    -0.91113157    -0.30464176    -1.00782346
O      -6.02129986     4.72553186    -7.99348073     1.55643864    -0.19118019    -0.01349832
O      -1.95441038     0.39587573    -4.08277058     0.04467337    -0.58338796     0.43276582
O      -5.74712942     8.58159876    -8.00093132    -0.26307902     0.70679878    -0.55964737
O      -5.92645834     0.51624360    -4.03135694     0.41413975    -0.48035526    -2.65486782
O      -9.74087102     8.18721809    -8.04758631    -0.91902522     0.49262356     0.00552075
