# total energy = -631.28225026 eV

CRYSTAL
PRIMVEC
        0.00279571     0.02951795    -7.98606283
       -7.83802570     0.01298533    -3.99532603
       -3.92160916     8.71933433     0.00634407
PRIMCOORD
56 1
Li     -3.90113364     2.32299179    -1.94771646     0.08826789    -0.02760108    -0.04284598
Li     -3.81463667     2.12488828    -5.96423128    -0.89751359    -0.08250761     0.00198543
Li     -7.81339893     2.36827828   -10.01528944     0.00351947    -0.01543300     0.28420808
Li     -7.62898241     2.28722938    -6.00134977    -1.11046321     0.00622658     0.38042640
Li     -3.93386843     6.55922360    -2.00149830    -0.00993231    -0.37648373     0.23008680
Li     -3.75075414     6.23649381    -5.79844776    -0.44689420     0.58772003    -0.41217478
Li     -7.84541772     6.71817855    -9.83689922    -0.58579952    -0.16465295    -0.25310606
Li     -7.74635764     6.86377559    -5.89763059    -0.53149652    -0.25613936    -0.06452247
Ti     -1.90474497     2.11144769    -4.06419162     0.30482240     0.46364716     0.81972335
Ti     -5.83972925     6.57756657    -7.89369808     1.13618032    -0.28463402    -0.17970182
Ti     -7.87210420     4.41495553    -7.73727027    -0.06119094    -0.22076338    -0.34164312
Ti     -7.89127202     4.48949069    -3.71947591    -0.48918217    -0.60933483     0.82187518
Ti     -3.84952789     4.23172866    -7.72026167    -0.48635422     2.51053799    -0.62056344
Ti     -3.96771771     4.29442301    -3.78074512    -0.80426437     0.50940310     1.53643121
Ti     -6.06445325     8.68325652    -2.11716780    -0.31773422     0.99574366     0.25485674
Ni     -5.82514537     2.39674744    -8.08008357    -0.22298933     0.33394214     0.32622847
Ni     -5.97168706     2.24158339    -3.99186449     0.43695592    -0.11950618    -0.64960985
Ni     -9.80177526     6.53519166    -7.89416361    -0.51007219     0.10786350    -0.11482734
Ni     -9.81771893     6.58133163    -4.11746541    -0.46670912    -1.48030891     0.43407793
Ni     -1.87477018     1.94839934    -7.92153776     0.37221740     0.43578199    -0.80354103
Ni     -5.89470377     6.52709296    -3.94725870    -0.01086989    -0.19331322    -0.32733511
Ni     -5.85794740     8.74013467    -5.99658904    -0.09920912    -0.53539802    -0.52730826
Mo     -5.96370097     0.14140255   -10.23888766    -0.71873430     0.13085876    -1.49230369
Mo     -9.78260726     8.70901222    -6.41830407    -0.00215198     0.26712237     1.02596251
O      -1.86750612     1.85516872    -1.90009120    -0.19323725    -0.14299076    -0.50686991
O      -1.88198300     1.88377338    -6.00720998    -0.58037954    -0.19672481    -0.03086805
O      -5.95608943     6.80950186    -1.99395378     0.43506604    -0.96127599    -0.66649228
O      -5.91876376     6.85738018    -6.02526668     0.64505652     0.59598924     1.08477852
O      -5.91740224     2.14261557   -10.15076527     0.64268509    -0.79319590     0.97032919
O      -5.87380230     1.89955850    -5.88879897     0.68013689     0.19167663     0.19073921
O      -9.82833420     7.05724770    -9.70972974     0.24503995    -0.86391203     0.21410543
O      -9.72122373     6.76693124    -6.07004080    -0.23970344     0.44898568     0.46181743
O      -3.97356158     2.36786522    -3.96531600     0.42762973    -0.51658274    -0.39850983
O      -3.79780339     2.44299402    -7.99739803    -0.41782715    -2.05410220     0.08256094
O      -7.87398865     2.48170313    -3.89952313     0.17636279    -0.42685644    -0.90799377
O      -7.78830752     2.35868274    -8.00075128    -0.89722812     0.35608332    -0.02523025
O      -3.94857110     6.29251516    -3.90415694     0.70227637     0.49786634    -0.41735336
O      -3.95408815     6.39320632    -7.91614979     0.05990233    -0.02569197    -0.40627691
O      -7.84513197     6.43790415    -4.04534427    -0.38048974    -0.63807891     0.62285921
O      -7.84454656     6.36096689    -7.91889537    -0.41201129    -0.30775855    -0.16118336
O      -4.01135036     4.38270770    -1.99410843    -0.12931938    -0.05675308    -0.40646000
O      -4.00586394     4.43120175    -5.97785403     0.23412208    -0.50606697     1.21644666
O      -7.95595082     4.26080885    -9.91411094    -0.15601364     1.04392547    -0.87100020
O      -7.83303927     4.24023663    -6.02203617    -0.24186332     0.03940942     0.85344381
O      -4.01314522     0.07456821    -2.04482478     0.54445463     0.13821524    -0.17600382
O      -4.01342845     0.10212582    -6.12688583     0.23725566    -0.50767820     0.16783741
O     -11.56356810     8.73500014    -6.08323390    -0.15804097    -0.58484482    -0.30214072
O      -7.73517308     0.19336563   -10.05210062    -0.41232534    -0.15798469    -0.04971667
O      -2.07950619     4.10029056    -3.86772433     1.93191684    -0.79827001    -0.83873252
O      -2.08480820     4.59631615    -0.02441170     2.61481340     1.32484947    -0.26535757
O      -5.97348789     4.53435224    -3.92938627    -0.08997905     0.17337351    -0.46619135
O      -5.86975705     4.38063674    -7.90263967    -0.52845137    -0.01790972    -0.69689618
O      -2.03950941     0.11662730    -4.05363775     0.43467348     0.79638494     0.74240611
O      -5.93779488     8.40808887    -8.13962677     0.33865895     0.99674756     0.72917576
O      -9.81637445     8.43284539    -4.07000807     0.15190966     0.22577183     0.52046821
O      -5.76359851     0.52856793    -8.16277640    -0.36987216     1.15663692    -0.58352618
