# total energy = -630.49380473 eV

CRYSTAL
PRIMVEC
        0.00279571     0.02951795    -7.98606283
       -7.83802570     0.01298533    -3.99532603
       -3.92160916     8.71933433     0.00634407
PRIMCOORD
56 1
Li     -3.98794892     2.14186747    -2.01094269    -0.03929314     0.40719187     0.20746636
Li     -4.01754285     2.28980477    -6.04525199     0.35607897    -0.49063220     0.51499913
Li     -7.80300310     2.38515982   -10.04586712     0.09401273    -0.17379951     0.23292631
Li     -7.74227918     2.03412484    -6.04705626    -0.62033926     0.21188492     0.42588058
Li     -3.91613182     6.50525261    -2.10455551     0.43722454    -0.16165961     0.78470503
Li     -3.91686342     6.34329197    -5.94549202    -0.12641554     0.49241841     0.97791825
Li     -7.82524922     6.48312760    -9.86910610     0.01232342    -0.38480874    -0.47975173
Li     -7.62463258     6.42205895    -5.86662093    -0.71594050     0.28003152     0.08238011
Ti     -1.94893997     2.24293948    -4.07288645    -0.00152137    -0.35301534     0.04249390
Ti     -5.73385675     6.75239256    -8.03001502    -0.53171804     0.12082113     0.16162976
Ti     -7.81540951     4.44892579    -7.65342855     0.50334275    -1.27517547    -0.72719166
Ti     -7.84245938     4.29405931    -3.80318938     0.62328272     0.65196414     1.18837699
Ti     -3.89859916     4.43463165    -7.58260928    -0.22286387    -0.93243140    -2.46301945
Ti     -3.96325862     4.38206800    -3.73098051    -1.11215095    -0.53963807     0.93637266
Ti     -6.12317861     8.71611993    -2.11016692     1.30970944     0.37039662    -0.63939801
Ni     -5.86479237     2.46919995    -8.03027874    -0.38217074    -0.57741598    -0.63671098
Ni     -5.85164459     2.15958625    -4.17586194    -0.63335526     0.20793938     1.51305483
Ni     -9.78646355     6.43965980    -7.86308176     0.38750549     0.24480515    -0.28830149
Ni     -9.78885032     6.43113077    -3.81356371     1.17147169    -0.15948128    -1.23412639
Ni     -2.03153021     2.31754487    -8.00670971     0.51317980    -0.27434460     0.07099433
Ni     -5.90319757     6.70314100    -4.04113619     1.03164293    -0.21857015     0.37494456
Ni     -1.90666132     0.06590009    -6.07755358    -0.90115334    -1.90162140     0.69735355
Mo     -9.99777518     8.65066128   -10.21362750     2.17952665     0.53130643     0.75166069
Mo     -9.81430434     8.63651938    -6.33684820     1.81599106    -0.69705217    -2.23127776
O      -1.98688108     1.96468349    -2.09578657    -0.02275971    -0.59032176     0.56050050
O      -2.04638992     1.81079469    -6.07742150     0.47596371     1.60829150     0.09959873
O      -5.75595241     6.74094145    -2.12330419    -0.89481560     1.00925831     1.45903421
O      -5.76610294     6.87874539    -5.93355735    -0.27515753     0.48020355    -0.59695326
O      -5.86027023     1.88279919   -10.19140575     0.15613549     0.64074977    -0.24590697
O      -5.85669525     2.04174973    -6.01733696    -0.27765156    -0.45924439    -0.12833744
O      -9.85123088     6.72634921    -9.85739091     0.60282319     0.70628500     0.50714920
O      -9.67601623     6.71044631    -6.00703943    -0.82865368     0.55419935     0.49524780
O      -3.87540003     2.40987107    -4.02170039    -0.14712011    -0.23391264    -0.37076648
O      -3.95597203     2.47843343    -7.88313579     0.18735086     0.72875757    -0.66231577
O      -7.94549776     2.32987126    -3.96180930     0.05298546     0.17271916    -0.66769818
O      -7.89360319     2.40239075    -8.02591879     1.35279610     0.72528280     0.11910610
O      -3.85709775     6.28247708    -3.92466601     0.05765652     0.89762578    -0.54826761
O      -3.87374779     6.47476112    -7.92972326     0.00159033    -0.71201234     0.01678596
O      -7.72752673     6.35133260    -3.92704455    -1.33442341    -0.63169734     0.04579281
O      -7.67875938     6.30773668    -7.88518265    -0.68427777     1.05256269    -0.60785166
O      -4.07341638     4.31157181    -1.96838209     0.76561969     0.24192378    -0.88471706
O      -3.97623362     4.45562421    -5.86887324    -0.16397161    -0.18993509     0.83954253
O      -7.79741796     4.29535443   -10.01372668    -0.04612314     0.51135474    -0.01524049
O      -7.88185606     4.38673863    -5.90657523    -0.09632663    -0.07809837    -0.57324721
O      -7.87008405     8.61449972    -2.07923625    -1.25446054    -0.08485510     0.47184088
O      -4.10255193     0.03204828    -6.21353596     0.87090266     0.06175895     0.79428663
O     -11.53898458     8.73718085    -5.94578855    -1.47326891    -0.08722160    -0.22543335
O     -11.66125636     8.74098771    -9.93606723    -2.16756663    -0.25897862    -0.18339636
O      -9.71363168     4.23246650    -8.07947365    -1.07139230    -0.00506756     0.39751814
O      -2.03195166     4.38421767    -7.81401921     1.08604318     0.19027541    -0.91817394
O      -5.94023782     4.05828838    -4.10358294     1.04814250     0.04590656     0.05721272
O      -5.79924868     4.49132761    -8.04154818    -1.18196308    -0.53447243     0.65321596
O      -1.93936278     0.22856221    -4.00591875     0.05833274     0.22568944    -0.18389452
O      -5.79802610     8.62646280    -8.02938179    -0.15160151    -1.00987957    -0.44249978
O      -5.91406167     0.12855727    -4.03701160     0.28296321     0.65341802    -0.39829934
O      -5.91025502     0.61845969    -8.17765673     0.09332486    -0.58940007     1.02575961
