# total energy = -630.67883612 eV

CRYSTAL
PRIMVEC
        0.00279571     0.02951795    -7.98606283
       -7.83802570     0.01298533    -3.99532603
       -3.92160916     8.71933433     0.00634407
PRIMCOORD
56 1
Li     -3.92736144     2.40651655    -1.96698338     0.05614615    -0.94712523     0.28064751
Li     -3.88084272     2.07413511    -5.94277253    -0.33961564     0.02232798    -0.56158811
Li     -7.82101735     2.36892881    -9.97897680    -0.00068125     0.00864703    -0.18266778
Li     -7.75119949     2.22617091    -6.02248452    -0.27289571    -0.08120220     0.31616796
Li     -3.89572403     6.56850991    -1.90367968    -0.13190993     0.05895304    -0.27324355
Li     -3.79964376     6.40018346    -5.97243877    -0.27864907     0.02155798     0.36852283
Li     -7.98222137     6.20875415    -9.85029536     0.54653629     0.68058852    -0.29402909
Li     -7.86859678     6.58961462    -5.87874893     0.08791990     0.12986049    -0.15024423
Ti     -1.96133609     2.28966009    -4.06127370     0.53478135    -0.74427606    -0.37711442
Ti     -5.87523183     6.61359987    -7.88566678     0.27920957     0.34512855    -0.79086430
Ti     -7.80013820     4.42434221    -7.80129706     0.13799129    -1.22620861     0.17593696
Ti     -7.82406556     4.38090961    -3.80753655    -0.50586774    -0.16543432    -0.08521243
Ti     -3.67354039     4.35966551    -7.77006556    -1.40766190    -0.88790119    -0.92859409
Ti     -4.04954834     4.39220050    -3.78170611     0.92537524    -0.13760903    -0.75201228
Ti     -6.11891892     8.69279897    -2.23776651    -0.50431106    -0.28654719     0.54319347
Ni     -5.81030137     2.46675276    -7.90763324    -0.69614923    -0.59717256    -1.02397960
Ni     -5.93840482     2.24632066    -3.95414412     0.65130448    -0.41694783    -1.61587193
Ni     -9.84118646     6.47156298    -7.81804910     0.62741385     0.62451341    -0.01961857
Ni     -9.77332382     6.54458881    -3.94452143     0.40130597     1.47453081    -1.13739022
Ni     -1.98190050     2.04543678    -8.03726672     0.48495376     0.14864460     0.54588348
Ni     -5.80778516     6.41427580    -4.02756153    -0.94845343     1.11654994     0.56958124
Ni     -5.94684384     8.72368142    -5.99458490    -0.15855425     0.05227116     0.07776560
Mo     -6.08646780     0.08052611   -10.16859627     1.98100117     0.17687790    -1.41790271
Mo     -9.78706421     8.72656538    -6.46066776     0.15048126    -1.23793244     1.28376461
O      -1.95396941     1.87550559    -1.92853641     0.47856953     0.30964932    -0.96531510
O      -1.91990823     1.84602656    -6.02256639    -0.42834283     0.42472503    -0.25748304
O      -5.95789447     6.80030537    -1.97447524     0.46323112    -0.34008004     0.05083944
O      -5.89644990     6.88253451    -5.97604288     0.22584184    -0.40917054     0.65785945
O      -5.81306832     2.12288837   -10.12837787    -0.98938385    -1.76333794     0.31927778
O      -5.82356546     1.93483764    -5.94529859    -0.45897501     0.35923155     0.68713057
O      -9.71687363     6.88485425    -9.62448450    -0.90641080     1.41542873    -1.13378931
O      -9.76920701     6.72721508    -5.97752312    -0.43204253     0.84667016    -0.21447003
O      -3.91540633     2.40984764    -4.11075437    -0.14956688     0.03768112     0.88933388
O      -3.93092549     2.39221117    -7.95947504     1.15776576     1.11547006     0.19204943
O      -7.85109721     2.43571486    -4.02310337    -0.35188592    -0.47321567     0.16086393
O      -7.81240657     2.39879286    -8.05813035    -0.39248472     0.57381061     0.43039519
O      -3.86607810     6.35655621    -3.96478289    -0.15213330    -0.71488958     0.10842819
O      -3.97149246     6.34226663    -8.01286475     0.52501058     0.10148661     0.44369452
O      -7.84244549     6.38219376    -4.04264506     0.53392548    -0.69357267     0.79808447
O      -7.86001209     6.34698090    -7.85842934    -0.15066496    -0.44764990    -0.40572727
O      -3.92131700     4.22579853    -2.06629563     0.13509916     0.88749934     1.02193890
O      -3.87932329     4.46394278    -6.06925081     0.21898264    -0.05450981     1.82378230
O      -7.78718493     4.28914005   -10.01701793    -0.36536565     0.54414236     0.50377371
O      -7.80301968     4.19496781    -6.08962572    -0.29314230     0.33364821     1.05602648
O      -3.90441790     0.17329942    -9.77540167    -1.07020477    -0.36960188    -1.53206477
O      -4.10857222     0.04089031    -6.08682451     1.41237617    -0.41291627     0.22831109
O      -7.59176771     0.03555473    -6.09525306    -1.66143245    -0.38773561     0.35951832
O      -7.81735358     0.06937812    -9.94993700     0.83893149    -0.08282693    -0.49264570
O      -1.99508037     4.13985411    -4.05508694     0.46309265     0.30233216    -0.09596068
O      -9.70725786     4.72213030    -4.03055797    -0.00772229    -0.43133139    -0.18103605
O      -5.93196634     4.47631654    -3.97253130     0.66570550    -0.02701750    -0.76785649
O      -5.79486850     4.33175026    -7.87555430    -0.58091035     0.83556364    -0.73204197
O      -1.87613897     0.16028657    -4.09743673    -0.62432603     0.42065592     0.41388205
O      -5.98776018     8.42959528    -7.89202428     0.67745703     0.53439129     0.04571224
O      -9.78811525     8.42551673    -4.06487660    -0.27479268     0.17237292     2.65033568
O      -5.88194027     0.63512625    -8.18305808     0.03140123    -0.01480118    -0.67832077
