# total energy = -630.41533342 eV

CRYSTAL
PRIMVEC
        0.00279571     0.02951795    -7.98606283
       -7.83802570     0.01298533    -3.99532603
       -3.92160916     8.71933433     0.00634407
PRIMCOORD
56 1
Li     -4.04216452     2.19310229    -1.96250138     0.76089510     0.27158887     0.20344608
Li     -3.88356445     2.02312918    -6.08488285    -0.48019528     0.04106663    -0.19124539
Li     -7.76699361     2.11500226   -10.10252606    -0.24278322     0.04152134     0.31718897
Li     -7.79274311     2.16964405    -5.87486232    -0.15188848     0.14525374    -0.59395308
Li     -3.94944309     6.50409216    -1.88134804     0.29024246    -0.28340234    -0.12874556
Li     -4.00964622     6.38085754    -5.82612101     0.08282590     0.65128340    -0.23722210
Li     -7.70653525     6.40501919   -10.02424350    -0.28495570     0.10958447     0.35675526
Li     -7.85257034     6.44458590    -5.88343010     0.44766613    -0.18501516     0.56855016
Ti     -1.96606571     2.17823555    -4.10896583    -0.78100846     1.54609261    -0.46885004
Ti     -5.92761687     6.67476913    -7.94879836     2.05061586     0.94689042     0.15309110
Ti     -7.89200921     4.40814026    -7.77660981    -0.91577218    -0.63667507     1.49061795
Ti     -7.91486343     4.26740849    -3.71298950     0.12914952     1.34465368    -1.69452972
Ti     -3.95945913     4.34305206    -7.69033544     0.28314783     0.30048344     0.09647318
Ti     -4.06814932     4.41577755    -3.70599068     1.58170472    -0.70133795     1.02498759
Ti     -2.09549486     0.06797708    -2.13501241     0.84214445    -0.67707940     0.95713417
Ni     -5.92293153     2.52937068    -7.99965745    -0.18038360    -1.73591431    -0.41744146
Ni     -5.81798405     2.19572985    -4.13537988    -0.34518539     0.17522976     0.71582260
Ni     -9.68654040     6.53070921    -7.84843471    -0.80104374    -0.06682366    -0.94669132
Ni     -9.81314745     6.47877649    -4.10655753     0.26542408    -0.52948139     1.12470438
Ni     -1.95832751     2.22171152    -8.06732523    -0.30621264    -0.18450229     0.83349544
Ni     -5.75161258     6.58670594    -3.83786917    -1.43676310    -0.38514321    -1.52811528
Ni     -5.95124260     8.73015288    -6.01889240    -0.18587498    -0.20334841     0.48260330
Mo     -9.84964241     8.72421558   -10.17732490    -0.20072431    -0.24063773    -0.24287642
Mo     -9.85651070     8.63407278    -6.36259946     0.75884590     0.49626170    -1.78574298
O      -2.05079712     1.97668423    -1.94205088     0.81985118    -0.07861926    -0.64622395
O      -1.99516671     1.94760921    -6.11046207     0.80565911    -0.94728770     0.05445888
O      -5.81888669     6.77056090    -1.99818888     0.07135328     0.23071085     0.80426860
O      -6.06293180     6.83175911    -5.79425666     1.64872729     1.18493568    -1.04860064
O      -5.82884037     1.95561351   -10.15563414    -0.18207043     0.29020289    -0.88807623
O      -5.84848305     1.86122498    -5.93987761    -0.79838319     0.97095974    -0.15939525
O      -9.56390061     6.96723872    -9.68424975    -0.95056838    -0.35330070     0.12230480
O      -9.68174100     6.69904205    -6.03688402    -0.94703128     0.63320960     0.80204432
O      -3.92525729     2.42835624    -4.23476396     0.07247095    -0.36137072     1.44173802
O      -4.02089607     2.42316055    -8.03033721     0.77960589     0.80460205     0.59525793
O      -7.80245406     2.33389920    -4.04190236    -0.24524946     0.36697694     0.42987244
O      -7.91716423     2.46302550    -7.99018028     1.03705810    -0.11918881    -0.25818540
O      -3.84860880     6.31307076    -3.92725444     0.62663735     0.86678372     0.20055984
O      -4.02494584     6.34039511    -7.93374747     0.49668741     0.19032038     0.16757269
O      -7.62098275     6.28844928    -3.85359451    -1.23299317    -0.47004401    -0.75752526
O      -7.76255604     6.38144464    -7.99451656    -1.48343176    -0.12258718     0.43781101
O      -3.84639668     4.43233988    -1.90396089    -0.57952654    -0.08304367    -1.33023996
O      -4.01217524     4.58804330    -5.93273617     0.39645445    -0.88697294    -0.73936517
O      -7.75293994     4.43836226    -9.98997278    -0.12594108    -0.49010173     1.51825499
O      -7.77758023     4.44343745    -5.99517642    -0.30213429    -0.09112914    -0.95960772
O      -3.84263442     0.02054845    -1.99264811    -1.64857539     0.24622110    -0.21707993
O      -4.12088261     0.10770568    -6.21126497     0.37972875    -0.89884943     0.49385082
O     -11.68750622     8.64773057    -6.09143915     0.93246669     0.19865790     0.16626434
O     -11.59643433     8.67234677   -10.07504762    -0.48431627     0.12421261     0.40588826
O      -2.05252860     4.12222341    -3.94423823     1.19096556     0.13370847    -0.54591426
O      -9.84419080     4.56414561   -11.89348968     0.84067412     0.52922871    -0.42690746
O      -5.85623393     4.19863767    -4.07216302    -1.52605188    -0.55526681     0.28322052
O      -5.92732920     4.39207077    -8.04668814     0.21982531     0.38090904     0.20788968
O      -1.88000501     0.27319572    -3.98975223    -0.38797072    -0.10919125    -1.01226711
O      -5.76756752     8.51515197    -7.95861916    -0.51029617    -0.57737876     0.03361424
O      -9.77367452     8.50840751    -4.03577524     0.35437581    -0.12704475    -0.12997533
O      -5.91024136     0.67173340    -8.16323088    -0.31201287    -0.73154497     1.13026547
