# total energy = -630.27404272 eV

CRYSTAL
PRIMVEC
        0.00285542     0.02004370    -7.95977623
       -7.82940539     0.00763210    -3.98158109
       -3.91729101     8.74642787     0.01461334
PRIMCOORD
56 1
Li     -3.79859915     2.24400673    -1.93539532    -0.58799984     0.17914183    -0.06803694
Li     -3.85049884     2.28898436    -6.07511422    -0.59732786    -0.05591110     0.73118079
Li     -7.88271096     2.11274672    -9.80727363    -0.13318463     0.29909169    -0.58653697
Li     -7.80540368     2.30888093    -5.85881685    -0.46095055    -0.15015724    -0.38941206
Li     -4.09678470     6.29580102    -1.82761536     0.68854494     0.27750566    -0.85609264
Li     -3.77804765     6.39583787    -5.78849737    -0.20958029     0.21304097    -0.70558877
Li     -7.92572846     6.22153541    -9.95212301     0.10400243     0.51888320     0.13192233
Li     -7.65705066     6.49688477    -5.83219373    -0.90592386    -0.05112536     0.37994572
Ti     -1.92682819     2.16827307    -3.90571634    -0.40243706     1.22517127    -0.13194320
Ti     -5.90609495     6.66634122    -7.79889230     0.86139012     0.22037992    -0.78097339
Ti     -7.83574789     4.49565984    -7.74021104    -1.13423842    -1.26196449    -0.57936425
Ti     -7.73551889     4.27430110    -3.65184708    -0.62085343     1.23027470    -0.04172729
Ti     -3.64453181     4.40922570    -7.73950627    -1.78944522    -0.29900835     0.37699723
Ti     -4.01642575     4.36261659    -3.80772620     1.49226421    -0.23546410     0.54176814
Ti     -6.19046538     8.61315442    -2.13734852     2.26620054     0.39727563     1.48919347
Ni     -5.86523822     2.45563391    -7.94954616     0.11763857    -0.59095253    -0.46135677
Ni     -6.01421717     2.24855664    -4.01814827     1.16436543    -0.47443475     0.47200857
Ni     -9.75365164     6.67892157    -7.89795199    -0.30621147    -0.07501584     0.83997149
Ni     -9.75927239     6.42859533    -4.14247900     0.16827525     1.30270474     0.03451454
Ni     -1.96710401     2.03464422    -7.85467489     0.66341736    -0.17838779    -0.77031615
Ni     -5.85505591     6.57699197    -3.92692305     0.14684570     0.60621315    -1.28223051
Ni     -2.00035640     0.02103712    -5.91441521    -0.29089576    -1.22143043    -0.66830368
Mo     -6.01918569     0.10368051   -10.27778201    -0.08157468    -1.83493577    -0.63026781
Mo     -5.80116902     0.05876406    -6.31717409    -0.80599664    -1.05709741    -0.01542139
O      -1.92348584     1.87807289    -1.98775352     0.26863923    -0.56106661     0.23532554
O      -2.02548281     1.82557714    -5.95456540     0.48515426     0.06296587    -0.30558960
O      -5.87181801     6.73473295    -2.11384147    -0.76813290     0.01304234     1.31276613
O      -5.86379563     6.83913728    -5.94139530     0.08877468     0.38579511     0.84499928
O      -5.95106838     1.94186341   -10.08777621     0.09856444     1.29566993     0.31443829
O      -5.90830878     2.00349928    -5.87637156     0.15585358    -0.46787182     0.06505131
O      -9.66394161     7.04083268    -9.65549256    -0.86705352     0.19291052    -1.15884513
O      -9.48856600     6.77351812    -6.09909208    -0.97395108     0.32483145     0.64892440
O      -4.01962666     2.38811638    -3.92692074    -0.11271279     0.14400398    -0.61883259
O      -3.73268486     2.46185804    -8.00266351    -1.69872929     0.66776077     0.58195852
O      -7.94756358     2.42495509    -3.95790410     0.60957499    -1.17302289     0.31834174
O      -7.91534454     2.34866788    -7.98338781     1.09001292     0.51826783     0.54599951
O      -3.87990335     6.40680246    -3.98221156     0.80229593    -0.79430356     0.76479569
O      -3.97915516     6.41078149    -7.91421352     0.71354865    -1.06325372    -0.12934891
O      -7.87822463     6.26019789    -3.91849352     0.27420972     0.23776725    -0.33674733
O      -7.83715998     6.43267458    -8.04760467    -0.24242009    -0.61219920     1.09156371
O      -3.95263993     4.26258027    -2.02903278    -0.13777277     0.82511827     0.43775032
O      -3.90811679     4.38546525    -5.95602801    -0.07201263    -0.10023910    -1.07938485
O      -7.87758762     4.31438262    -9.83143551    -0.11321543    -0.36225047    -1.05236579
O      -7.97144179     4.18778859    -6.02988685     0.29640256     0.76694455     0.70526885
O      -3.95813458     0.19180379    -2.19204916    -2.58369982    -0.12712739     0.05894129
O      -3.96492468     0.05456293    -6.02208907     0.26798592    -0.03159870     0.27239136
O     -11.45422038     8.48954614    -5.94705354     0.68546509     0.78757730    -0.37142405
O     -11.70713181     8.73946907   -10.02755737    -0.08693938     0.44322801    -0.27721262
O      -2.03650779     4.08959677    -4.11351702     0.02902980    -0.50865568     0.46501403
O      -9.69288192     4.66089159    -4.01270874     0.23646839    -0.97569348    -0.00672144
O      -5.92373800     4.66420067    -4.00557344     0.27557739    -0.09168395    -0.18497719
O      -5.97855566     4.55340718    -7.99587839     1.43548797    -0.73879471     0.35886774
O      -1.78976635     0.05585080    -3.92004133    -0.29237667     0.36022103    -1.02301148
O      -6.04934434     8.48124682    -8.03262360     0.61003032     0.05647338    -0.39319737
O      -9.77389740     8.26311824    -4.04903642     0.23881212     0.73528288     0.87636653
O      -5.80770850     0.48457108    -8.10850196    -0.09829486     1.27202808    -0.03508618
