# total energy = -630.76957249 eV

CRYSTAL
PRIMVEC
        0.00279571     0.02951795    -7.98606283
       -7.83802570     0.01298533    -3.99532603
       -3.92160916     8.71933433     0.00634407
PRIMCOORD
56 1
Li     -3.97902191     2.45939629    -1.92825487    -0.17742632    -0.46030007     0.11724548
Li     -3.93655419     2.49717026    -5.96662786    -0.08575208    -0.52747410    -0.18780229
Li     -7.90148488     2.36087866   -10.01177594     0.32617421    -0.33850825     0.35600219
Li     -7.88742085     2.42515613    -5.92243865     0.15399219    -0.23157534     0.22401879
Li     -3.83374014     6.44370241    -1.78502342    -0.20035954    -0.31531342    -1.07540706
Li     -3.83449596     6.50274572    -5.92223137    -0.39148736    -0.05103894    -0.43015219
Li     -8.03113321     6.46581180   -10.02405918     0.62296523    -0.01885544     0.59987573
Li     -7.83674365     6.38301794    -5.71623293     0.24999794     0.18451345    -0.52832606
Ti     -2.03498449     2.32344270    -4.04483277    -0.84082879    -1.01126453     0.04197275
Ti     -6.00552169     6.63957815    -8.11358227     0.53524990    -0.63900007     0.57854563
Ti     -7.83166221     4.31078795    -7.78628190     1.02814092     0.86912701    -0.99048080
Ti     -7.85103434     4.31393187    -3.70679354    -1.70571845     1.16369688     0.32575977
Ti     -3.94952678     4.39155068    -7.83729780    -0.15212232     0.36719419    -0.19527091
Ti     -4.19788179     4.43575519    -3.89702626     0.60637233    -1.13296652     2.31190076
Ti     -1.75401329     0.10705941    -2.03148249    -1.23417846    -0.23374138    -0.41866900
Ni     -5.94584801     2.01727317    -7.84686393     0.97737789     0.64477845    -0.89301478
Ni     -5.91759718     2.26328562    -3.94063524     0.61791679    -0.40915787     0.24442576
Ni     -9.82082641     6.33164570    -8.04456259    -0.44058413     0.51874575    -0.15733398
Ni     -9.80420877     6.66783632    -4.01364824     0.16473314    -1.03131752     0.47067555
Ni     -2.04241919     2.23576126    -7.96751596     0.29720522    -0.34827693    -0.01159089
Ni     -5.71289597     6.65390482    -3.94317476    -2.33170314     0.15445764    -0.56668877
Ni     -5.72282275     8.73755812    -5.92800365    -0.95619428     0.51220350    -0.31924745
Mo     -5.89485259     0.14615514   -10.23827830     1.84833224     0.52575194     0.59948438
Mo     -9.68571555     8.70425985    -6.35432737     1.15519913     0.52704718    -0.45260891
O      -2.06353300     2.00432766    -1.94030266     0.66830628    -0.39102510    -0.08836007
O      -1.97327086     1.97688034    -5.93215554     0.22649545    -0.83445579    -0.71640573
O      -5.87531258     6.75839990    -2.01640371     0.09201631     0.84550005    -0.17327959
O      -5.78618015     6.92162602    -5.90790270     0.06223915    -0.05767529     1.05329491
O      -5.94108377     2.12113091    -9.84164975    -0.21413606    -1.42050590    -0.25975800
O      -5.85180571     1.88397163    -5.93117796    -0.50664880    -0.46646202    -0.64945550
O      -9.83025204     6.71617884   -10.11750434    -0.10733653     0.88457962    -0.29248029
O      -9.80930445     6.81023050    -5.90136524    -0.11501386    -0.06490413     0.01023361
O      -3.97554657     2.39100763    -4.00453304     0.07392326     0.52676678     0.02055478
O      -3.99560475     2.34842005    -7.93645306    -0.41449221     0.80764115     0.23872933
O      -7.76518929     2.39584746    -3.98851967    -0.96034872    -0.18005683    -0.02688539
O      -7.87449960     2.36077301    -7.94351423    -0.19496676     0.28613590     0.38558837
O      -3.90172218     6.27083201    -3.87466492     0.65291481     0.83521882    -0.69510103
O      -3.95776662     6.40333151    -7.96191799     0.26601692    -0.73415928     0.08669631
O      -7.77940804     6.34198439    -3.81434179     0.00670013    -0.30701333    -1.35609065
O      -7.92044154     6.35292060    -8.00591966     0.21129403    -0.30378073    -0.20418124
O      -4.03371821     4.33576121    -2.05126367     0.13834978     0.21202134    -1.02461908
O      -3.88690074     4.39342019    -6.05959163    -0.03752866    -0.02445959     0.82692620
O      -7.87375020     4.32578210    -9.92457347    -0.05859804     0.26373703    -0.26202127
O      -7.83741517     4.47369507    -6.07194966    -0.19082317    -0.27436688     1.31487414
O      -4.08734337     0.19884144    -9.84020209    -1.26650330    -0.59758518    -0.69482608
O      -7.92984766     8.66499510    -6.21292745    -0.90888433     0.27980202    -0.05481780
O      -7.82477728     0.08161957    -6.06849514     0.96106615    -0.07401192     0.24121057
O      -7.70921415     0.09989327   -10.12179873    -0.58763224     0.15164733     0.34197484
O      -2.02565100     4.29833203    -3.98721057     0.35312407    -0.17148364    -0.34130545
O      -1.95460388     4.17227529    -0.07949451    -0.31240383     0.16131810    -0.10073303
O      -6.02536840     4.26241360    -4.17772793     1.21447847    -0.47175608    -0.05575466
O      -5.88799000     4.60270793    -8.03286721    -0.22202518     0.44635220     0.14799014
O      -2.03268112     0.31654586    -4.01274405     0.23163363     0.14805067     0.84017474
O      -5.91428916     8.48904826    -7.99388088     0.21360769     0.94758238    -0.23162826
O      -9.71061935     8.60959222    -4.09948846    -0.14266662     0.16295218     0.04024445
O     -10.02589573     8.18638478    -8.19372295     0.80658554     0.07010349     1.99357622
