# total energy = -630.71179306 eV

CRYSTAL
PRIMVEC
        0.00279571     0.02951795    -7.98606283
       -7.83802570     0.01298533    -3.99532603
       -3.92160916     8.71933433     0.00634407
PRIMCOORD
56 1
Li     -4.04815942     2.02013331    -1.87613069     1.09009320     0.05304195    -0.49221098
Li     -4.05349026     2.26169059    -5.90908475     0.14588887     0.04184630    -0.50206647
Li     -7.69285107     2.32292872   -10.00105901    -0.35988698     0.34646859    -0.13672614
Li     -7.91673686     2.20212057    -5.80259231    -0.15939217     0.26533188    -0.48505517
Li     -3.91793578     6.40332296    -2.07620052     0.33354491     0.18480116     0.43004051
Li     -3.92986505     6.25872174    -5.88043378     0.16783092    -0.04434607    -0.39317728
Li     -7.84970364     6.38730770    -9.91945738    -0.14155343     0.25816763    -0.14974003
Li     -7.73841506     6.56456825    -5.88133995    -0.42816780    -0.19262779    -0.52074336
Ti     -1.86822658     2.16547098    -4.09484467    -0.90669279    -0.50824335     1.36445850
Ti     -5.78028503     6.76355721    -7.94692931     0.72547874    -0.38794833     0.61277664
Ti     -7.77516544     4.41207276    -7.84907835     0.62917825    -0.50834443     1.63804019
Ti     -7.74699028     4.44490618    -3.88250926    -0.39224431    -1.12818828     1.07805755
Ti     -3.79219528     4.36652451    -7.93253378     0.40963757    -0.19565508     1.27869005
Ti     -3.90684281     4.29778962    -3.71447434     0.54829870    -0.35041163    -1.65603122
Ti     -6.14788159     8.64528360    -2.02760122    -0.57260639     2.49353121    -1.36457020
Ni     -5.78392092     2.31379073    -7.93824747    -1.07106381     0.86013732    -0.83670029
Ni     -5.87389507     2.18136592    -4.04703548    -0.24116813    -0.26393295     1.63104167
Ni     -9.77271795     6.54203153    -7.91572533    -0.40914929     0.07345680     0.43741036
Ni     -9.69891555     6.65357213    -4.04847125    -0.52769397    -1.05399243    -0.12791669
Ni     -1.95504462     2.21438988    -7.84621280     0.77788909    -0.28760849    -1.19843672
Ni     -5.83492140     6.56566510    -4.00111262     0.88528010     0.43237516    -0.04867336
Ni     -6.01107601     8.73409437    -6.01524166     0.31846498    -0.83320267     0.93483620
Mo    -10.01299687     8.73506078   -10.15731641     1.00700109    -0.57715248     0.06934299
Mo     -9.93261022     8.70606958    -6.28321455     0.98014489    -0.69716599    -1.27977375
O      -1.97056737     1.90292635    -2.03875260     0.04569053    -0.58739726     0.50951129
O      -1.98830874     1.79471757    -6.00553730    -0.24960444     0.92619760    -0.42171133
O      -5.70439864     6.83192859    -1.91597492    -1.49640716    -1.15708591    -1.15778685
O      -5.82924443     6.80624519    -5.96946722    -0.25984592     0.70525953     0.35799850
O      -5.81456968     1.94951408   -10.12256289    -0.54206715     0.28410856     0.45573227
O      -6.03799810     1.98168857    -5.80206316     0.72747873    -0.52178860    -2.10239255
O      -9.78868299     6.92093049    -9.76959760    -0.10953178    -0.55521415     0.14320265
O      -9.83339497     6.73480935    -6.04287647     0.74422962     0.75731838     0.15871950
O      -3.94638410     2.36001929    -4.01416478     0.46751361     0.19875413     0.12173982
O      -3.81307290     2.38163993    -8.04097524    -0.60635203     0.78017453     0.44097086
O      -7.81323602     2.38640964    -3.96036168    -0.74857577     0.59214608     0.50934335
O      -7.85162438     2.41220537    -8.04098093     1.44869352    -0.22554503     0.08551110
O      -3.86625382     6.23543458    -4.02708430     0.09825409     0.50333664     0.26153308
O      -3.86903199     6.49073851    -8.04640029    -0.11864272    -0.73549686     0.87279488
O      -7.69229733     6.36089563    -4.02313270    -0.57041765     0.55837830     0.38752980
O      -7.70418899     6.33706016    -7.93426089    -0.75576334     0.32998101    -0.31231449
O      -3.99475798     4.47225954    -2.01281831     0.29866052    -0.09513615     1.27101846
O      -3.94964318     4.34797855    -6.14652637    -0.02076137     0.27105190    -0.45650079
O      -8.01879657     4.50570909   -10.04381238     0.48036331    -0.44260735    -0.86877550
O      -7.83173105     4.38202023    -6.01759777    -0.04978501     0.01064858    -1.17771942
O      -7.97367368     8.70038144    -9.96260618     1.10970967    -0.06859271     0.45932670
O      -4.18640023     0.12567611    -6.05922742     0.16539970    -0.61843326     0.12544845
O     -11.68486093     8.61948163    -5.89195277     0.20534564     0.71639949    -0.42876390
O      -7.80146042     0.11339381    -9.92755178    -0.97649211    -0.19852247    -0.35469241
O      -1.90912053     4.06908212    -4.08098638    -0.98876651     0.26249018     0.22169423
O      -9.74416494     4.66751409    -4.18651740     0.02852994     0.37815107     0.35001139
O      -5.80060173     4.07813501    -3.99752149    -1.17874353     0.63132771    -0.31361333
O      -5.85340029     4.27403744    -8.22504606    -0.13127155    -0.17757275     0.76254007
O      -2.09777929     0.18791544    -3.96174530     0.56001803    -0.20521516    -0.24827842
O      -5.94292918     8.57922460    -7.96768050     0.18861503    -0.05968643    -0.02975181
O      -9.72930142     8.69951729    -3.95771901    -0.52794369    -0.00348624    -0.96301510
O      -5.95365117     0.47793541    -8.11242541     0.13366787     0.60526191     1.05197120
