# total energy = -630.73894765 eV

CRYSTAL
PRIMVEC
        0.00279571     0.02951795    -7.98606283
       -7.83802570     0.01298533    -3.99532603
       -3.92160916     8.71933433     0.00634407
PRIMCOORD
56 1
Li     -3.90729609     2.45403306    -1.80332345    -0.40783339    -0.05588011    -0.58408948
Li     -3.77153468     2.35296786    -5.96239898    -0.64227567    -0.10077108     0.07111917
Li     -7.74610348     2.58505701    -9.83534719     0.10749312    -0.75654870    -0.51642201
Li     -7.98377044     2.38740904    -6.12102261     0.83340411    -0.27738821     1.17084431
Li     -3.98766605     6.89224877    -2.19609611     0.27935202    -0.68479109     0.60311267
Li     -4.13530729     6.51910565    -5.86706261     1.08210970    -0.26645927    -0.05212055
Li     -7.81653719     6.35845624    -9.94974047    -0.21188857     0.23436957    -0.07736874
Li     -7.74899763     6.72956140    -6.04827997    -0.88426863     0.02804160     0.35678651
Ti     -1.98527316     1.95833726    -4.00977605    -0.20471204     0.02423134    -0.56034361
Ti     -5.75304917     6.41599391    -8.00060931     0.38288120     0.84385198    -0.77460530
Ti     -7.88341347     4.51055483    -7.68275591    -0.56847517    -0.67218068    -0.59217514
Ti     -7.80610780     4.41530019    -3.78010508     1.01834845    -0.69795518     0.37395625
Ti     -3.68586267     4.28090645    -7.78697570    -1.12828829     0.42371454    -0.48119288
Ti     -3.95293254     4.45108087    -3.79846645    -0.07585134     0.83207841     2.16449599
Ti     -2.25841348     0.01927393    -1.90406699     0.25653094    -0.91546506     0.22681664
Ni     -5.87553397     2.24011526    -7.78123095     0.16788765     0.02390672    -1.59070046
Ni     -5.91212207     2.26855610    -4.01189381     1.38353697     0.16071918     0.14052573
Ni     -9.78444684     6.51292577    -8.02615058    -0.87790679    -0.64825568    -0.20436618
Ni     -9.85008498     6.49848249    -3.96740714     0.62383718     0.57049134    -0.63821116
Ni     -1.79702340     2.07737394    -7.95189166    -0.40639540    -0.42795478     0.17545046
Ni     -6.01840965     6.60995750    -4.07052807     1.10124838     0.01676424     0.53868699
Ni     -1.95663780     0.04906357    -6.09195395    -0.41024327    -0.08854692     0.55962303
Mo     -9.95748795     8.69016153   -10.28687275    -1.28835724     0.60603712     0.59138285
Mo     -5.87662457     0.14669519    -6.32976646    -0.56088496    -0.95089954    -1.00121761
O      -1.95370436     1.92932292    -2.04185318    -0.24449477    -0.01432929     0.44330681
O      -1.89843256     1.91916939    -6.00293519     0.01552959    -0.20773905     0.05951329
O      -5.93182039     6.69801161    -1.93370629     0.12073240     1.89074728    -1.01551799
O      -5.91342089     6.90426724    -6.01170826    -0.06953423     0.53960850    -0.03310288
O      -5.85188653     1.88054840    -9.74759885    -0.34576662    -1.01190322    -0.04342757
O      -5.85033735     2.02586294    -5.92262691    -0.34595369     0.39801969    -0.33550669
O      -9.87886170     6.69801447   -10.05414826     0.14409814     1.05740007    -0.28097249
O      -9.82107383     6.96219757    -5.86305987     0.12918824    -0.70940029    -0.16460451
O      -3.85658760     2.49467838    -3.91616860     0.50790411    -0.63104371    -0.64135333
O      -3.98730396     2.34698412    -7.88546157    -0.12913064     0.59458608    -0.07941406
O      -7.74062813     2.38706258    -3.96858117    -0.39376913     0.37738248    -0.37857298
O      -7.86839310     2.48456890    -8.00247444    -0.33730568     0.47401114     1.11003079
O      -4.07904229     6.42616321    -3.98256888    -0.06666799    -0.39375721    -0.50451043
O      -3.84592130     6.32657341    -8.01776620    -0.39330733     0.34666268     0.38524635
O      -7.88927692     6.30971798    -4.09260621    -0.50468445     0.33686625     0.89006966
O      -7.73279565     6.36757792    -8.03412749    -1.17447982     0.58044973     0.56970161
O      -3.94326197     4.46922418    -1.97352715     0.11120974    -0.52705317    -0.45762680
O      -3.92159181     4.47891736    -6.05521559    -0.03520613    -0.19395820     0.19482133
O      -7.63021119     4.39072225    -9.96742670    -0.47356355     0.70326733    -0.88378713
O      -7.60879859     4.52658579    -5.94156623    -0.82105504    -0.77291438    -0.75880339
O      -7.99302467     8.65568371   -10.02530347     0.13251549    -0.03249808     0.04390656
O      -4.04788024     0.05938775    -6.17072882     0.95096700     0.24069918     0.03867791
O      -7.71978713     0.04529965    -6.18939476     0.21257745     0.82121626     0.08655668
O      -0.04029280     0.03617425    -6.04993919     2.05458365    -0.52737594    -0.31320936
O      -9.88883939     4.66126351    -8.03653805     2.12889580    -0.83783114     0.24663222
O      -1.84764645     4.02101091    -7.93414216     0.31271005    -0.32812432    -0.32640772
O      -5.79535743     4.17352267    -4.11268430    -1.72792746    -0.36588666     0.24059413
O      -5.89032445     4.63627012    -8.01836954     0.51873416    -1.18983030     0.32335044
O      -2.18725429     0.18188512    -3.95554399     0.43482033    -0.39002182     0.05883672
O      -5.74214679     8.69245512    -8.05451783    -0.39557810     0.23729559    -0.59954918
O      -5.84286161     0.34205167    -4.11931942    -0.32523014     0.29380258     1.20079905
O      -9.82932354     8.26186245    -8.17976614     0.19191935     1.38019540     0.89054431
