# total energy = -631.02012768 eV

CRYSTAL
PRIMVEC
        0.00279571     0.02951795    -7.98606283
       -7.83802570     0.01298533    -3.99532603
       -3.92160916     8.71933433     0.00634407
PRIMCOORD
56 1
Li     -4.00631425     1.97813404    -1.98085188     0.20876036     0.40785333     0.03961052
Li     -3.97518707     2.31566619    -6.01174864     0.21749271    -0.08800113     0.24980784
Li     -7.85769931     2.27770726   -10.09597023    -0.04175241     0.15862156     0.26376202
Li     -7.75330415     2.36023754    -5.86874930    -0.30581701     0.02329267    -0.84810197
Li     -3.86934966     6.33357737    -2.06684389    -0.37102609     0.00461974     0.61607409
Li     -3.88813282     6.49546594    -5.78585123     0.00718634    -0.19368566    -0.42346147
Li     -7.75881872     6.47056303    -9.90163682    -0.74234480     0.05304516    -0.07300746
Li     -7.91560421     6.35726962    -5.91406455    -0.32377238     0.18727340     0.28177453
Ti     -1.95582408     2.25968293    -4.12055674    -0.37096980    -0.56731170     1.20559728
Ti     -5.81226142     6.56733351    -7.85186970    -0.41462872     0.68906646    -0.26871781
Ti     -7.95264440     4.46509387    -7.81235509     0.69944417     0.28932538     1.53363659
Ti     -7.81219996     4.38388177    -3.82146757    -1.22900324    -0.00512017    -0.03470908
Ti     -3.83715103     4.33935250    -7.70430613    -0.09041321    -0.52701343    -0.54884426
Ti     -3.97810954     4.32621147    -3.74845034    -0.82074424     0.65629186     0.53514264
Ti     -5.65180294     8.70986208    -2.25217226    -0.44117378     0.70432677    -0.51961230
Ni     -5.88248748     2.24665516    -8.06127642    -0.07645536    -0.30505611     0.26046672
Ni     -5.97648967     2.30321352    -4.04864806     0.60428028    -0.53031030     0.09158230
Ni     -9.84686247     6.85080281    -7.87642058    -0.92489938    -0.38162525    -0.24487133
Ni     -9.76204919     6.43823447    -3.86526205    -0.82414491     0.26781237    -0.19275325
Ni     -2.00552624     2.15763756    -8.03483723     0.23584499     0.25281572    -0.02503310
Ni     -5.94197285     6.62837511    -3.94581043     0.15525721    -0.43573377     0.04014189
Ni     -5.77859100     8.65569536    -5.97688970    -0.88683559     0.28957655     0.72928621
Mo     -9.84075629     8.65319971   -10.34297088     0.96039017    -0.26497485     2.07254591
Mo     -9.71333042     8.73319699    -6.25810150    -0.04552629    -0.24161202     1.19414319
O      -1.91532589     1.91729353    -2.14816762    -0.55465049    -0.79585300     1.01785510
O      -1.94075065     1.83676099    -5.93533750     0.13218909    -0.65218890    -1.89389259
O      -5.96029560     6.84602359    -1.92270677     0.67296710    -0.17294137     0.12159882
O      -6.07267477     6.79868720    -5.83583375     1.38283008     0.16446086    -1.07110030
O      -6.00279662     1.91452089    -9.93209818     0.19621200     0.38909537    -0.66593234
O      -5.80863093     2.05192055    -6.10803402    -1.04172724    -0.28695751     0.46362158
O      -9.72822127     6.77897748    -9.80747416    -0.25402379     0.23032244    -0.71885094
O      -9.92248554     6.85572406    -5.86869352     0.42463916    -0.26965282     0.02430635
O      -3.98525973     2.43324550    -4.01115603    -0.13385301    -0.81496512    -0.09111774
O      -3.92800261     2.35200436    -7.94459367    -0.13935982     0.74999295    -0.42012310
O      -7.87641493     2.32586794    -4.04428232    -0.26015788     0.79498425     0.45897815
O      -7.87868065     2.52629475    -8.00822337     0.65427902    -0.36472464    -0.35071775
O      -4.01126641     6.34308460    -3.98523779     0.11988755    -0.04053802     0.80799019
O      -3.93776935     6.36277175    -7.89567439     0.53185895    -0.11741983     0.13650042
O      -7.86401361     6.39154303    -3.96760991    -0.19802193    -0.65598297     0.21558206
O      -8.02939459     6.47813749    -7.84323440     1.31247824    -1.34619079    -0.48464617
O      -3.86445106     4.34531030    -1.98773927    -0.38042685     0.42638890    -0.29757669
O      -3.93972532     4.39690122    -5.95287237    -0.05190856     0.02843352    -0.22186059
O      -7.94799181     4.40611948   -10.06328618    -0.00352677     0.03698975     1.47707318
O      -7.95125767     4.35812382    -5.99159817    -0.03943951     0.37030845    -1.72359584
O      -4.05877993     0.05318712    -2.11244277    -1.15750222    -0.55580383    -0.12270983
O      -8.01015070     8.65228630    -6.02754212     1.14977224     0.33268883     0.53174909
O      -7.76291720     0.06433219    -6.16168017    -0.56258365    -0.14191616     0.58048512
O      -3.85256506     8.45057072    -5.99084513     1.13083987     0.71975449    -0.09289634
O      -2.07183038     4.10113163    -4.10684156     0.93194299     0.98310066     0.02626350
O      -1.98103354     4.19633620    -0.05601836    -0.07886007    -0.12667793     0.09180102
O      -5.98140763     4.20611568    -3.96551887     1.80258443    -0.23873842    -0.49985018
O      -5.90260759     4.59833494    -7.99829356    -0.64396922     0.49732546    -0.04537256
O      -1.92876257     0.18681672    -4.10945571    -0.11252635    -0.09927767     0.56710720
O      -5.90228726     8.53760657    -7.78425915     0.15135091    -0.31200198    -0.76520354
O      -6.01797691     0.39351154    -4.07580864     0.07950266     0.51614478    -1.71855742
O      -5.85251103     0.36226289    -8.02792927    -0.20515133     0.04388298    -1.39377684
