# total energy = -630.44710446 eV

CRYSTAL
PRIMVEC
        0.00285542     0.02004370    -7.95977623
       -7.82940539     0.00763210    -3.98158109
       -3.91729101     8.74642787     0.01461334
PRIMCOORD
56 1
Li     -4.12980378     2.33128905    -1.99502027     0.79809840    -0.16954686    -0.08363767
Li     -4.17346813     2.23191255    -6.03343268     0.96108199    -0.03501519     0.42454364
Li     -7.85939421     2.23084679   -10.08381849     0.11997268    -0.01294308     0.39503023
Li     -7.79035079     2.33872555    -5.93169876    -0.45476568     0.17708344    -0.08940888
Li     -4.09550205     6.38518655    -2.01338814     0.72168327    -0.06897383     0.37921423
Li     -3.99527783     6.46495959    -6.02441102     0.50082996     0.19494997     0.73649786
Li     -7.89156306     6.18097728    -9.81841623    -0.04980230     1.04029157    -0.23736823
Li     -7.85156190     6.61702425    -5.82807003     0.40878128    -0.28642390    -0.05866719
Ti     -1.96823176     2.36434362    -4.16935266    -0.06928390     0.10067009     1.11933786
Ti     -5.85818483     6.81753331    -7.97929398    -0.35738808    -0.22958422    -0.09041825
Ti     -7.78420950     4.44702110    -7.64696903    -0.26503240    -0.36608419    -0.81236286
Ti     -7.92011518     4.41612635    -3.64466607     0.90852460     0.39652555    -2.59771084
Ti     -3.89485311     4.30894755    -7.69265961    -0.39561104     0.66245371    -0.18128231
Ti     -4.01248698     4.40773668    -3.75854240    -0.47527879    -0.01378713     1.55056647
Ti     -5.72658282     8.73081771    -2.16088215    -0.15178314     0.48213281    -0.03307518
Ni     -5.82089861     2.31605580    -8.04151503    -2.59650001     1.05641431     0.18173636
Ni     -5.97263340     2.30003136    -4.02118784     0.16709902     0.28433959    -0.15477213
Ni     -9.76944264     6.38758717    -7.85808383    -0.69758353     0.35933347    -0.04508780
Ni     -9.78289490     6.40955664    -3.96753973    -0.01602107    -0.24368286     0.26312557
Ni     -2.01615465     2.19119997    -7.96289354     0.17238116     0.15852481    -0.57630700
Ni     -5.90299219     6.67042054    -4.03482794    -0.46941508    -0.23105788     0.32864541
Ni     -1.81018710     0.06820030    -5.94787691    -0.64879949    -0.23744823    -0.16001790
Mo     -9.76445614     8.74289503   -10.24037721    -0.40061374    -1.29004988     1.09355543
Mo     -9.76481139     8.63174705    -6.14824663    -1.15016255     0.19320000    -2.04940261
O      -1.93230335     1.87133405    -1.90225427     0.08085865    -0.45191426    -0.16187127
O      -2.00201476     1.88971351    -5.99197929     0.30747612     0.13877809    -0.93405376
O      -6.01291550     6.77035224    -2.10628323     0.57578630     0.35564310     1.07298440
O      -5.91291262     6.99110225    -6.01442983     0.71302780    -0.76178142     1.18461644
O      -5.99759255     2.06325249    -9.98797014     0.72432643    -0.22063668    -0.50052037
O      -5.94612969     1.96788982    -5.98605094    -0.45618438    -0.06201492    -0.02660781
O      -9.81923369     6.78629153    -9.92068373    -0.00936718     0.55228970     0.00387453
O      -9.69797179     6.68854170    -5.93019450    -0.78036771     0.60113519    -0.02047463
O      -3.82027583     2.40772678    -3.91653561    -1.28332239    -0.16986856    -0.63886975
O      -4.00922721     2.38349817    -8.07866651     1.09608436     0.07659318     1.16988859
O      -7.91725049     2.52753790    -4.06796997     0.46246374    -1.38287925     0.48473086
O      -7.88097358     2.52322074    -8.00245293     0.68316872    -0.47952064     0.45019235
O      -3.98321704     6.34938447    -3.90335109     0.53162086    -0.33607930    -0.54408406
O      -3.91922016     6.31838256    -7.98545019    -0.61668451    -0.49795589     0.28786016
O      -7.85991541     6.37557383    -3.88658686    -0.27468501    -0.24113565    -0.32662565
O      -7.77124644     6.40973780    -7.92715900    -0.00485074    -0.13699617     0.02089845
O      -3.80227584     4.20303160    -1.94198904    -0.66509906     1.17267927    -1.82733756
O      -3.94518223     4.25728516    -5.89869738    -0.18818687     0.12869969    -0.90217925
O      -7.96408933     4.30607573    -9.90310899     0.08413466     0.33890944     1.90580740
O      -8.17766155     4.47972776    -5.96495656     0.88447379    -0.11897527     0.50987025
O      -7.98058285     8.71356939    -2.06868562     0.78332086     0.33248854     0.01872609
O      -8.06332736     8.75126727    -5.84871519     1.40750837    -0.13171815    -0.23276411
O      -3.82398003     8.40416441    -1.81898722    -0.53470654     1.08671731    -0.82784270
O     -11.59599990     8.72473964   -10.16833385    -0.43080351     0.08024952     0.76537318
O      -2.01454334     4.27662516    -4.10218179     0.14126729     0.31919844     0.02291239
O      -1.98822409     4.19166203    -7.88037758    -0.83213908     0.19312109    -0.28030060
O      -5.98562403     4.27850296    -3.98762872     0.94585650    -0.52144275    -0.15892221
O      -5.90814159     4.35726560    -7.97228477     0.89165376    -0.06489535     0.26866326
O      -1.74176886     0.34814044    -3.98615295    -0.23469402    -0.51642072    -0.33342917
O      -5.85467397     8.62498128    -7.91861363    -0.27562989     0.19119507    -0.56221764
O      -5.88369586     0.40003206    -4.06716470     0.00807553     0.51637504    -0.59735281
O      -5.87963479     0.52749269    -8.05806289    -0.18896966    -1.36715145     1.37157087
