# total energy = -630.81023214 eV

CRYSTAL
PRIMVEC
        0.00279571     0.02951795    -7.98606283
       -7.83802570     0.01298533    -3.99532603
       -3.92160916     8.71933433     0.00634407
PRIMCOORD
56 1
Li     -3.91332010     2.42108290    -1.73869591     0.08812641    -0.30157986    -0.80945372
Li     -3.87514096     2.39693597    -5.90780891    -0.52037673    -0.36950356    -0.21652506
Li     -7.86776308     2.22054366   -10.12395463     0.13937395     0.24030195     0.79765707
Li     -7.94540037     2.23042524    -5.93321079     1.00701512     0.16399356    -0.08569067
Li     -3.99873184     6.31522006    -2.08184283     0.06799556     0.27568762     1.10774097
Li     -3.88981379     6.41406097    -5.94677511    -0.02490561    -0.13211634     0.44961320
Li     -7.94203819     6.47029691   -10.09151104     0.07779653     0.21175615     0.68084816
Li     -7.87348512     6.58333018    -5.95878871     0.17211925    -0.31993262    -0.13337623
Ti     -1.99169071     2.12731736    -3.99287239     0.89575039     0.80307815     0.37337695
Ti     -5.84283560     6.87394843    -7.93395714    -0.77489855     0.36975514    -0.18288317
Ti     -7.73492740     4.36040674    -7.85362487    -0.10741879    -0.17765629     0.82838166
Ti     -7.71570413     4.37270343    -3.74882985    -0.32969202    -0.49562190    -0.12377347
Ti     -3.87232353     4.41394088    -7.74763685     0.09168401     0.47666967     0.73251266
Ti     -3.92205030     4.28119756    -3.82734663    -0.43345918     0.62654356     1.47248628
Ti     -6.10307315     8.63905393    -2.11973289    -0.48348836     1.24077067    -0.00451575
Ni     -5.85762997     2.35745932    -7.96520205     0.19300687    -0.36321411     0.12168863
Ni     -5.94543211     2.05267015    -3.98127646     0.54922957     0.16794804    -0.54391420
Ni     -9.80719722     6.54476599    -7.91410861     0.37827821     0.07097497     0.72510517
Ni     -9.75333494     6.39818431    -4.11946968    -0.67286002     1.76677519    -0.16597784
Ni     -1.99569414     2.28778658    -7.87216873     1.53615275    -0.67987668    -0.50657600
Ni     -5.85734744     6.61700714    -4.08499740     0.25352067    -0.15685216     1.54164973
Ni     -5.88728443     8.68969060    -5.89225739    -0.17069468    -0.02029959    -1.53286257
Mo    -10.00639600     8.75045529   -10.23864883     2.92616358     0.07349151    -1.02704436
Mo     -9.80579038     8.71001967    -6.31408051    -1.18137989     1.13350317    -0.71240778
O      -1.88452631     1.92133286    -2.03819768    -1.27356705    -0.41408475    -0.19631954
O      -1.87319733     1.83031928    -5.99550464    -0.81549533    -0.10870615     0.01500337
O      -5.94627596     6.77683697    -1.92626125     0.29117227    -0.57947278    -0.47807725
O      -5.81403261     6.80292069    -5.89905256    -0.38142312     1.02472646    -1.34422794
O      -5.87994840     1.97221868   -10.08726328    -0.11234214    -0.22987778     0.25573939
O      -5.89427523     2.08560221    -5.82816874     0.09010246    -1.43747842    -0.33444899
O      -9.87271050     6.90909046    -9.73408651     0.43240647     0.46364139    -0.43377555
O      -9.87703408     6.82808005    -6.07358011     1.09909899    -0.68890207     0.62524451
O      -3.96243807     2.28819900    -3.95962290     0.13547805     0.38236621     0.03672099
O      -3.81945071     2.51454125    -7.82542256    -1.01268765    -0.26625555    -0.65330767
O      -7.85715027     2.43512957    -4.03110060    -0.35863255     0.14496501     0.59273208
O      -7.74802379     2.35211109    -8.00155617    -0.76292796     0.63516622    -0.32020590
O      -3.76016538     6.27446319    -3.82931508    -0.91831423     0.41753803    -1.87692312
O      -3.99121066     6.47360663    -7.98155882     0.31228651    -0.68518686     0.14605640
O      -7.83246801     6.28327835    -4.09491513    -0.58540327     0.83153286     0.27807978
O      -7.86314331     6.34112960    -7.89726369     0.58851079     0.46114068    -0.51821746
O      -3.74208837     4.42893682    -2.00232887    -0.77887620    -0.80848319    -0.88696950
O      -3.85037000     4.45740722    -5.93433580    -0.02100921     0.22319484    -0.68616946
O      -7.95337329     4.46915773    -9.95634187     0.20551876    -0.25262410    -0.89231431
O      -7.79002145     4.35038760    -6.10543705    -0.77807361     0.01729799     0.38112428
O      -7.92801358     8.66714720    -2.06373982    -0.01116750     0.15178801    -0.17239466
O      -4.04899658     0.06338752    -6.10135307     0.26349319    -0.53953797     0.37079740
O     -11.62813686     8.71658318    -6.03405829     0.76195849     0.29571631    -0.21876008
O     -11.71737052     8.74082502   -10.07072609    -1.70732537     0.18173883     0.01221035
O      -2.01811579     4.01107942    -4.12745498     0.73372946    -0.36211059     0.26607465
O      -9.79866852     4.61002407    -4.06741192     0.59777008    -0.86245077     0.10835603
O      -5.87560673     4.73861062    -4.02655506     0.61024595    -0.48637309     0.09265827
O      -5.80379845     4.37141337    -7.98102646    -0.16412297    -0.50900544    -0.53802755
O      -1.87064257     0.12813152    -4.03849343    -0.36746716    -0.66861274     1.19736971
O      -5.93827643     8.71354478    -8.14943925     0.32269163    -1.48931087     1.03090295
O      -9.79443868     8.44110669    -4.08750801    -0.03907638    -0.39480765     1.38265085
O      -5.88655388     0.51302435    -8.10680375     0.06703322     0.43451469    -0.08186580
