# total energy = -630.57361984 eV

CRYSTAL
PRIMVEC
        0.00279571     0.02951795    -7.98606283
       -7.83802570     0.01298533    -3.99532603
       -3.92160916     8.71933433     0.00634407
PRIMCOORD
56 1
Li     -4.02435853     1.97650376    -1.91181195     0.48211001     0.27801816     0.04452312
Li     -3.93704189     2.21031515    -5.99697886     0.11677715    -0.02027993    -0.17275820
Li     -7.81405871     2.32546040    -9.98558694    -0.01057271     0.16878031     0.03802200
Li     -7.79780471     2.08227335    -5.81027135    -0.23196004    -0.11230456    -0.46270197
Li     -3.86626491     6.60287452    -2.04933068    -0.00192773    -0.18452056     0.08225627
Li     -3.96050237     6.53730095    -5.79906753     0.21223534    -0.24505218     0.13800066
Li     -7.91549346     6.71912710    -9.94734435     0.00557073    -0.64382381     0.03676735
Li     -7.76647788     6.55940178    -5.92799083    -0.33442279    -0.00326633     0.09962784
Ti     -1.91373212     2.20209624    -4.04862874    -0.82457571    -1.28175570    -0.06740061
Ti     -5.70605680     6.59238738    -8.03900876    -1.63052981    -1.17737969     0.15179388
Ti     -7.90230071     4.35835437    -7.62662880     0.56745676     0.94977792    -1.36908803
Ti     -7.94945990     4.30302767    -3.77931848     0.65736483     1.09874529     0.22477921
Ti     -3.83523776     4.37684631    -7.73213698     0.06629866    -1.54332465     0.04504501
Ti     -3.95568296     4.29888143    -3.71206120    -1.09191004     1.20079584    -0.21879058
Ti     -6.06656139     8.69831443    -2.05868018     0.16775372     0.43078172    -1.09957168
Ni     -5.89820788     2.50243439    -7.96171979     0.71695666    -1.12324641    -0.66336076
Ni     -5.86609952     2.27446899    -4.08622180     0.45561289    -0.09570760     1.20375430
Ni     -9.83305486     6.32790501    -7.87399087    -0.22880263     0.80747902    -0.79051514
Ni     -9.72964133     6.55266249    -4.06601410    -0.57833552    -0.07959846     0.04217846
Ni     -1.84651740     2.12015889    -8.00979093    -1.17048742    -0.13473407     0.12797898
Ni     -5.93672339     6.46538862    -3.92761086     0.52973932    -0.09533193    -0.69700255
Ni     -5.93301615     8.71742991    -6.00067897    -0.30780201    -1.01449463     0.52522429
Mo     -6.04382662     0.09175774   -10.26726923     0.88136559    -1.23818474    -0.55879175
Mo     -5.88742333     0.05479464    -6.31209278     0.16101509    -1.72255500    -2.01713189
O      -2.01941637     1.84661442    -2.02381432     1.04464685     1.41028169     0.92411754
O      -2.03741893     1.80399049    -6.13192072     0.80378644     0.93215371     0.67236897
O      -5.86323775     6.80597004    -2.00529231     0.02082462    -1.30775447     0.02657408
O      -5.89766113     6.82347151    -5.80330740     0.13589286     0.62709765    -0.85068364
O      -5.90937399     2.02433595   -10.15228119     0.33324608    -0.22105782     0.19383965
O      -5.87213250     1.96656299    -5.89299506    -0.02669904     0.90566241    -0.22037839
O      -9.80117106     6.97853950    -9.67863341    -0.53102763     1.29791781    -0.57156481
O      -9.78509197     6.80429634    -6.11871661     0.13633446     0.62778322     1.24116721
O      -3.88869463     2.38724789    -3.85163931    -0.48314134    -0.41813743    -1.10503559
O      -3.83991928     2.41033942    -8.01240773    -0.33394710     1.17692727     0.09678548
O      -7.74998235     2.36581883    -3.91826532    -1.03346383    -0.21431297    -0.81523696
O      -7.85593187     2.36153912    -7.95264419     0.17625409     0.93666551    -0.17038265
O      -3.87383169     6.28349481    -3.88813283    -0.74789023     0.27346039    -1.10399740
O      -3.88823013     6.42202145    -7.89889367     0.33372765     0.11568789    -0.16543480
O      -7.86399037     6.32226060    -3.92514974     0.63089772     0.17723040    -0.30538635
O      -7.97861964     6.22337057    -8.00990019     1.37556704     0.50705329     0.49452110
O      -3.85285644     4.60535975    -2.00887888    -0.23228340    -0.60720451     1.32521418
O      -3.68315437     4.34963144    -5.97705654    -0.62798855     0.27663409    -0.28163197
O      -7.74484988     4.43521307   -10.03318122    -0.21205619    -0.64132279     0.52970888
O      -7.82515970     4.48856699    -5.90905598    -0.04321534    -0.53814018     0.27976139
O      -7.87322166     8.68837125    -2.24888320    -0.81616638     0.15628311     1.14613157
O      -4.08134336     0.04075258    -6.10134863     0.49922141    -0.26301765    -0.05058077
O      -7.73363130     0.02937346    -6.12865333    -0.01690007    -0.06281642     0.08100180
O      -7.77660393     0.07607638   -10.15730772    -0.61584885    -0.10731420     0.40663945
O      -1.99783047     4.17262798    -4.00862227     1.10723849    -0.48323317     0.20224273
O      -9.81776258     4.63739521    -4.05495598     0.74947530     0.57607348    -0.17070684
O      -5.85958451     4.28051998    -4.20159967    -0.25936866     0.12345928     0.76791043
O      -5.85335102     4.50627186    -7.97799016    -0.02387405    -0.43002601     0.43936867
O      -2.06486525     0.32189790    -4.04668715     0.71688606    -0.56606234     0.02457996
O      -5.82734428     8.38465634    -8.03362470    -0.48967279     1.15988182     0.16624060
O      -9.80562133     8.55881305    -4.18681452    -0.08084038    -0.33265571     2.32426799
O      -5.86391750     0.60140800    -8.12824881    -0.06343347     0.37163920    -0.18708507
