# total energy = -630.60868169 eV

CRYSTAL
PRIMVEC
        0.00279571     0.02951795    -7.98606283
       -7.83802570     0.01298533    -3.99532603
       -3.92160916     8.71933433     0.00634407
PRIMCOORD
56 1
Li     -4.01293677     2.39390743    -1.89691796     0.11808802    -0.24565222    -0.38210302
Li     -3.87571499     2.47576274    -6.11998860    -0.04984591    -0.36129611     1.15067820
Li     -8.12506751     2.31552355    -9.98446206     1.27036530     0.07182980    -0.01852961
Li     -7.83921690     2.36437215    -6.00721420    -0.16221806    -0.28299399     0.99565632
Li     -3.86038153     6.53040011    -2.03989193    -0.04005294     0.06262981     0.07013317
Li     -3.88628306     6.49572518    -5.89003770    -0.12766373    -0.18211998    -0.22218330
Li     -7.86642450     6.38471913   -10.05976415    -0.12011849     0.05107538     0.61135390
Li     -7.75849214     6.39942783    -5.80087200    -0.86028093     0.07698021    -0.44885205
Ti     -1.91179083     2.25955360    -3.91534485    -2.02132823     0.10418780    -0.20711500
Ti     -5.83398781     6.81962156    -7.90093092     0.09947566    -0.92952729    -0.39332845
Ti     -7.55067849     4.36779413    -7.74439152    -0.92126340    -0.33954999    -1.23423516
Ti     -7.75696813     4.30837596    -3.70830226    -0.92395810    -0.61158718     0.16393710
Ti     -3.80018414     4.40283057    -7.82270519     0.67836024     1.18412121     0.64929508
Ti     -3.94307504     4.44605542    -3.74400727     0.84382007    -1.37283623     0.26737815
Ti     -6.18181621     8.66038267    -2.13721420    -0.61982234     1.91381294    -0.90039181
Ni     -5.80202794     2.09011372    -7.89663532    -1.41464953     0.19332167     0.68425720
Ni     -5.83590780     2.31209400    -4.12020686     0.77479934    -0.78559568     0.46840829
Ni     -9.65663815     6.32071394    -8.06976950    -0.70471610     0.05420071     0.23319804
Ni     -9.83266093     6.66554995    -4.03797505     0.42559507    -0.10321579     0.60313661
Ni     -2.05620063     2.07821734    -8.04419793     0.74618141     0.32265005     1.09434117
Ni     -5.94807703     6.49037773    -4.01614894     1.54953799     0.89815773     0.22620186
Ni     -2.06354235     0.10087042    -5.99387805    -0.33289080     0.39216712     0.82694880
Mo     -6.09522443     0.08653962   -10.22553004    -1.08293140    -0.72106010    -0.00438423
Mo     -5.87579538     0.07823702    -6.25925811     0.99281990    -0.67532054    -2.21760246
O      -2.02518055     1.97743883    -1.93279281     0.37456622    -1.01755326    -0.44041636
O      -2.02816466     2.00083323    -5.95172177    -0.30683291    -1.24838359    -0.86101325
O      -5.82566221     6.84062894    -2.04294979    -0.27693613    -0.73457387    -0.14667812
O      -5.95564027     6.96044185    -5.95633183     0.33693418    -0.71449899    -0.20004779
O      -5.91903481     1.84857428    -9.64982580    -0.44066751    -0.25744098    -1.22510829
O      -5.85767002     2.04047558    -6.09224885     0.01483924    -0.19237561     1.13645738
O      -9.77972812     6.81024354   -10.14034312    -0.59358279     0.65961392    -0.28122697
O      -9.78009536     6.83080402    -5.84032682     0.43801580     0.12601801    -0.23726789
O      -3.84838743     2.31463965    -3.99495251    -1.43621010     1.77053583     0.17751502
O      -4.03039739     2.47643830    -7.96931635     0.49800951    -0.95899337    -0.38628772
O      -7.68997730     2.37218834    -3.92381559    -0.24571935     0.25800000    -0.68322909
O      -7.89457339     2.35592224    -7.87504104     2.30361974     0.43670583    -0.81124360
O      -3.75438639     6.29580526    -4.02283424    -0.57956942    -0.04091734     0.29133771
O      -3.90039850     6.44252686    -8.06482028    -0.14675897     0.05295789     0.74308120
O      -7.75499949     6.29745707    -3.92101886    -1.20155473    -0.41324551    -0.35164652
O      -7.74855419     6.30329186    -8.10747132    -0.04255455     0.07921543     0.77283263
O      -4.04016477     4.40512251    -1.94928917     0.03552282    -0.09078973    -1.01672581
O      -3.95940139     4.42814894    -6.04591002     0.18350539     0.26950658     0.06628987
O      -7.97848047     4.32322291    -9.90974016     0.66437862     0.17624884    -0.56936519
O      -7.90469582     4.34482295    -6.03491632     0.20427777     0.48038175     1.14047236
O      -4.10034812     0.10065591    -2.19736968     0.45809125    -0.71574434     0.59213833
O      -3.97812010     0.09724658    -6.11595955    -0.34981197     0.01762065     0.35605233
O      -7.64568076     0.04324273    -6.11344723    -0.32316619     0.25878888     0.18710192
O      -4.08652939     8.74081781    -6.10089443     2.84693694     0.08817485     0.16306065
O      -1.94490287     4.19627908    -3.91824643    -0.38723846     1.50951658    -0.42235136
O      -1.93235434     3.95246475    -7.93837444     0.27876069    -0.02542368    -0.64231582
O      -5.85070914     4.26178857    -4.10051056    -0.30741067    -0.43471321     0.27062356
O      -5.75787682     4.62545473    -7.93080493    -0.48249339     0.74579574    -0.19171276
O      -1.94779875     0.33385842    -3.96297561     0.02145416    -0.80705534     0.38209637
O      -5.95549549     8.66092974    -8.08166938     0.07683868     0.27537487    -0.58265355
O      -5.94925261     0.26307262    -4.05677707     0.08155871     0.45005424     0.29787888
O      -9.76109492     8.17545338    -8.09081358     0.14168314     0.05177131     0.25664254
