# total energy = -630.48310292 eV

CRYSTAL
PRIMVEC
        0.00279571     0.02951795    -7.98606283
       -7.83802570     0.01298533    -3.99532603
       -3.92160916     8.71933433     0.00634407
PRIMCOORD
56 1
Li     -3.92413328     2.45562160    -1.80491943    -0.50704186    -0.36329306    -0.71248310
Li     -3.90318138     2.37858762    -6.09358743     0.53115579    -0.37686788     1.08693509
Li     -7.80133716     2.31931514    -9.97979827    -0.15542471     0.05673605     0.23987837
Li     -7.78322001     2.34678773    -5.95105328    -0.14430226    -0.30098762     0.14544685
Li     -3.80793497     6.70192498    -2.12058806    -0.23980568     0.21295483     0.45971715
Li     -4.05606678     6.57371768    -6.09759726     1.06342165    -0.31716902     0.62896316
Li     -7.85590548     6.23760030    -9.92809792    -0.18666001     0.67919257    -0.15637590
Li     -7.78081048     6.53467965    -6.05128415    -0.23432497     0.41018832     1.16086947
Ti     -1.99738900     2.09088069    -3.90907211     0.14398682    -0.97706458    -0.25901395
Ti     -5.83131123     6.46612089    -8.04924055     0.58677717     0.63371411    -0.22804945
Ti     -7.90840728     4.45870765    -7.67767011    -0.14573593    -0.66932345     0.12704113
Ti     -7.91879717     4.31554634    -3.77230274    -0.01095947     0.88527478     0.28507731
Ti     -3.77769114     4.30408750    -7.69855983     0.41112667     1.98354069    -2.96647919
Ti     -4.02575197     4.48229903    -3.66141717     0.61997381    -1.01874213    -1.21655542
Ti     -6.10156973     8.70839317    -1.93783175    -1.47179308    -0.60789839    -0.03570441
Ni     -5.86730712     2.39019318    -7.82670496    -0.48402644    -0.42683289    -0.98527300
Ni     -5.89147325     2.30602687    -4.07556153     1.25402838     0.08665384     0.53827449
Ni     -9.87749233     6.38561000    -7.98375615     0.76647397     0.75857180    -0.51753833
Ni     -9.76396637     6.64095997    -4.08616965     0.91551802    -0.50296652     0.32063329
Ni     -1.99988525     2.06743855    -8.02571798     0.76710992    -0.32095987     0.98394481
Ni     -5.94259673     6.44201022    -4.05713752    -0.33683534     0.71772163    -0.01320050
Ni     -5.89805889     8.69358730    -6.03454215     0.17083440     0.50826622    -0.24959539
Mo     -9.91602589     8.74417230   -10.19501983     3.00474308    -0.59102899     0.09848346
Mo     -5.76698858     0.19154852    -6.42183823    -0.79270247    -0.62875535     0.78182304
O      -2.07712327     1.95120058    -1.94082945     0.74069725     0.68122569    -0.67676229
O      -1.86147281     1.78478261    -6.15206381    -0.63811881     0.78949159     0.70575850
O      -5.98789993     6.77209997    -2.10520686     0.64122119    -0.17503731     0.59506070
O      -5.84812671     6.88364871    -6.06362516    -0.47871692    -0.68584362    -0.04832163
O      -5.87605010     1.80949420    -9.68931317    -0.11216192     0.69346232     0.00525542
O      -5.77164307     2.09149741    -5.98508421    -0.20308594    -0.23423304    -0.03928129
O      -9.66302530     6.74337709   -10.12688743    -1.39298463     0.69066420     0.00670166
O      -9.69891298     6.95100999    -5.90662098    -1.18576869    -0.77758074    -0.54495527
O      -3.86807124     2.44060729    -3.98292206    -0.13579053     0.28781978    -0.04129016
O      -3.99420646     2.45228938    -7.96203693     0.38262498    -0.88872751     0.25265144
O      -7.73414336     2.37768511    -4.04217610    -1.19143909     0.15742326     0.26025681
O      -7.87882784     2.48774868    -7.90077826    -0.21850650    -0.12528382    -0.12409082
O      -4.01050511     6.33780695    -4.07171144     0.42988574     0.18757454     0.35472391
O      -3.88502347     6.26671215    -8.09926134    -0.92212575     1.40727425     0.50738807
O      -7.84937708     6.40604945    -4.13660924     0.50835514    -1.42557811     0.94741538
O      -7.90428044     6.36879467    -7.82040134     0.56998837    -0.25786694    -1.94387182
O      -4.05600082     4.41091051    -1.94264892     0.29860824    -0.29466605     0.73062366
O      -3.98451502     4.40248019    -6.02277768    -0.05967143    -0.06003120     2.30929739
O      -7.92865154     4.33095076    -9.94472229     0.32078243     0.00040458    -0.95544254
O      -7.70771898     4.37494211    -5.92624410    -0.09926925    -0.22542346    -0.52529210
O      -7.93816701     8.68553004    -9.86759961     1.26614099     0.47920723    -0.21160611
O      -7.88923205     8.66720155    -6.15058756     0.55767549     1.16434818     0.09611544
O      -7.59428325     0.13965784    -6.23561942     0.22375183    -0.04818235     0.86239977
O     -11.60915566     8.66317790    -9.95556153    -2.57322167    -0.20951765    -0.19495479
O      -2.01808854     4.45243754    -3.93416776     0.08907320    -0.22410916     0.07012033
O      -9.77815392     4.60607818    -4.14071087     0.11741001    -0.15344347     0.25992618
O      -5.89312524     4.23916216    -3.93650861    -1.00947376    -0.18164531    -0.58231903
O      -5.88439530     4.61081840    -8.03959054    -0.36477037    -0.07534273     0.17593585
O      -1.93866757     0.22574470    -3.88746471    -0.21571006     1.14157317    -1.01235427
O      -5.69995408     8.55546522    -8.10492976    -0.06198634    -0.65538216     0.35173377
O      -5.71570812     0.17450170    -4.00111498    -0.68887296    -0.05634917    -0.44023003
O      -9.75592821     8.29658974    -8.10834883    -0.14855164    -1.19920926    -0.89062997
