# total energy = -630.69266333 eV

CRYSTAL
PRIMVEC
        0.00279571     0.02951795    -7.98606283
       -7.83802570     0.01298533    -3.99532603
       -3.92160916     8.71933433     0.00634407
PRIMCOORD
56 1
Li     -4.03463013     2.37392399    -1.94568916     0.23324396    -0.24448821     0.30309715
Li     -4.08708557     2.38396149    -5.90032602     0.07643343     0.06047245    -0.26019161
Li     -7.91830383     2.37356514   -10.08101766     0.01214327    -0.39414858     1.16424278
Li     -8.05377471     2.42544353    -5.82673162     0.89366794     0.00354840    -0.49657775
Li     -3.86180098     6.31503965    -1.86585030    -0.34505082     0.40019059    -0.22501290
Li     -3.82852626     6.30320732    -5.98695637    -0.47757517     0.36640227     0.20311185
Li     -8.02172997     6.65326552    -9.89148015     0.69056810    -0.19658893    -0.15433754
Li     -7.91244751     6.31841730    -6.00761958    -0.30312342    -0.04897411     0.41465664
Ti     -2.11747451     2.24222617    -4.07902931     0.51961277     0.35171243     0.66650852
Ti     -5.91751467     6.75691645    -7.81533554    -0.18008417    -0.96277219    -2.09557556
Ti     -7.62620855     4.29352078    -7.81596362     0.00981694     0.84097300    -1.22751595
Ti     -7.71416210     4.39018044    -3.71680486    -0.37208922     0.24227594     0.48506884
Ti     -3.80954721     4.35155314    -7.80017958    -0.02672370    -0.44028221    -0.39780960
Ti     -3.95015969     4.49768426    -3.75427946    -0.85933382    -1.32297910    -0.48405681
Ti     -1.72225190     0.01239300    -2.21315500    -0.12681002    -0.42557515     0.16623142
Ni     -5.85146430     2.03662105    -7.91353701    -0.41176135     0.57089253     0.36660368
Ni     -6.04468493     2.14438159    -3.84484666     1.15851355     0.18347158    -0.94046254
Ni     -9.89139307     6.42604187    -8.04201203     0.80587917     0.14160337     0.36115968
Ni     -9.78149670     6.63724745    -4.03549494    -0.29344763     0.00937798     0.44160325
Ni     -1.99368830     2.11616149    -7.98073015    -0.32946533    -0.10169553     0.00946918
Ni     -5.95724246     6.68224364    -3.98670978     0.18341892     0.05357608     0.36886598
Ni     -2.00105893     0.04176848    -6.02317844     1.43542762    -0.66814152     0.30631865
Mo     -5.90687205     0.09855830   -10.24751797    -1.02929856    -0.42915570    -0.72296892
Mo     -5.77753717     0.08016692    -6.37529178    -1.88976337     0.22233838     0.62304748
O      -1.95921155     1.86747532    -1.97964000    -1.03631552     0.99628983     0.02921445
O      -1.97890835     1.84427972    -6.00621063    -0.45361708     0.79907988    -0.12858883
O      -5.92206281     6.88808989    -1.97700195     0.00464396    -0.56329464    -0.85343103
O      -5.81880405     6.87305888    -5.94837300    -0.74090210     0.07121862     0.96025578
O      -5.97626717     1.92772545    -9.69163682     0.25594827     0.45315460    -0.87792345
O      -5.94330258     2.01576473    -6.11598399     0.11608447    -0.98035786     1.15446068
O      -9.91082894     6.88259399   -10.09488161     0.96300906    -1.11034996    -0.25911499
O      -9.85894576     6.84611596    -5.88874573     0.52153491     0.33925427     0.14757254
O      -4.01133486     2.32243965    -3.90803059     0.76106382     0.34628026    -0.46314394
O      -3.96470769     2.29478046    -7.89856545    -0.13306298     0.73274832    -0.58234272
O      -7.94363680     2.36751214    -3.92175553     0.69249240     0.61209524    -0.21232241
O      -7.89561117     2.41807537    -7.90515959     0.06443353    -0.06927504    -0.73080225
O      -3.93011957     6.34485465    -3.91017967    -0.83853611     0.47726937    -0.61147819
O      -3.83746344     6.25383820    -7.96171743    -0.18024856     1.14411775     0.09856620
O      -7.86356072     6.35247475    -4.00611214     0.22734226    -0.40985308    -0.04613631
O      -7.89399972     6.43324292    -7.95218243     0.39413901    -0.54124925     0.29812681
O      -3.94930697     4.40512734    -2.02057665     0.08578874    -0.63430927     1.30741480
O      -4.03982382     4.31706906    -6.04546719     0.04007165     0.13460076     0.92469194
O      -7.93844154     4.46772564    -9.92237945    -0.29511694    -0.22895123    -0.90804394
O      -7.79218349     4.33857645    -6.07786979    -0.09112621     0.74827226     1.56540773
O      -4.07761960     0.05489426   -10.02024975    -0.87361147    -0.12352343     0.02839533
O      -4.06105629     0.06792585    -6.21932025     1.43221756    -0.04823109     0.31220781
O      -7.77309344     0.07634491    -6.19994999     0.09773648    -0.03797246     0.64672584
O     -11.69190422     8.72424434   -10.03242765     0.52300124     0.47886035    -0.10742391
O      -2.05236844     4.33763087    -3.97564038     0.63658113    -0.43230473    -0.52353002
O      -1.93397187     4.05128132    -0.09611313    -0.09118257     0.00305741     0.27779483
O      -5.85678486     3.96086655    -3.74578546    -1.39720428     0.71626309    -0.80230914
O      -5.83144938     4.72692098    -8.16926918    -0.13179144     0.14939900     0.80309200
O      -1.95286468     0.35217239    -4.08933391    -0.49104842    -0.58707122     0.25321376
O      -5.68285955     8.59739649    -7.97247518    -0.81730978     0.20150218    -0.15484208
O      -5.94111146     0.34066544    -4.12555849     0.04954618    -0.79802929    -0.27321438
O     -10.04393657     8.29690086    -8.09859646     1.09365956    -0.76761242     0.07642098
