# total energy = -630.51960202 eV

CRYSTAL
PRIMVEC
        0.00285542     0.02004370    -7.95977623
       -7.82940539     0.00763210    -3.98158109
       -3.91729101     8.74642787     0.01461334
PRIMCOORD
56 1
Li     -3.96442676     2.39011731    -1.98361492     0.70126925    -0.30678283    -0.03518473
Li     -3.81976466     2.26013831    -6.05195441    -0.59506190    -0.40357130     0.44809828
Li     -7.82659146     2.37441233    -9.98035721     0.47399667    -0.25631679    -0.22246073
Li     -8.04060081     2.01960120    -5.86536206     1.32445940     0.20123457    -0.02029294
Li     -3.96435295     6.41959797    -1.87151404     0.23145030    -0.00370324    -0.40742191
Li     -3.93166409     6.37614322    -5.94902995     0.35723976     0.59829252     0.58251481
Li     -7.95293166     6.22944455    -9.83798253     0.18607547     0.30332747    -0.08568239
Li     -7.87007677     6.60123370    -5.96210083     0.20507858     0.12660201     0.56874162
Ti     -1.89457535     2.27335800    -4.06513350    -1.36089630    -1.18324822    -0.09802947
Ti     -5.85756096     6.73956522    -7.91296828    -0.63122050     0.41792795    -0.13521072
Ti     -7.85322493     4.38518619    -7.60339132     0.72047790     0.14840274    -1.49124248
Ti     -7.95099197     4.37818475    -3.79744361     0.19132269    -0.95723643     1.52679797
Ti     -4.01419162     4.36111499    -7.70296741     0.95358267     0.19834570     0.37691317
Ti     -4.02844829     4.45203397    -3.81182575    -0.65352544    -0.24464416     0.29175885
Ti     -5.92076884     8.72848092    -2.10596992    -0.92254029    -0.44831101    -0.68626034
Ni     -5.82030905     2.35496174    -8.04999235    -0.27484161    -0.62609700     1.24893102
Ni     -5.80955944     2.33102355    -4.06906739    -0.76601331    -0.86407763    -0.43879451
Ni     -9.81420231     6.48861065    -7.82740947     0.44314761     0.48755253    -0.27564236
Ni     -9.78353489     6.37927097    -3.99765200    -0.53528898     0.23341126     1.77512976
Ni     -1.96769447     2.20660402    -7.94687957     0.09564706     0.13787520    -0.40873570
Ni     -5.96714761     6.59274418    -3.99293322     0.72243526     0.26501432     0.71166265
Ni     -5.82989916     8.75901149    -5.91654935    -0.06902244    -0.56120217    -0.64886120
Mo     -5.81066270     0.07844539   -10.29114986    -1.70672527    -1.07810645     0.55567940
Mo     -9.82905233     8.64878465    -6.16450393     2.27999095     1.22759152    -1.46143549
O      -2.09081868     1.91279043    -1.95453006     1.34503962    -0.61820547    -0.09446197
O      -1.91358503     1.81458133    -6.06444913     0.18845606     0.96159555     0.71761352
O      -5.89344729     6.75349846    -1.92793977     0.08491028     0.30271164    -0.73910094
O      -5.83306767     6.91922120    -5.88331303    -0.50799220    -0.60895941     0.30226396
O      -5.74645405     2.06517187    -9.96667461    -0.94594182    -0.47673065    -0.49614249
O      -5.84713831     1.99222047    -6.03267005    -0.24731988     0.29882752     0.14272908
O      -9.82599752     6.84081134    -9.93429122     0.83747652     0.51668640     0.26071128
O      -9.84229042     6.70685919    -5.81881796     0.44747785     0.41536356    -1.41873934
O      -3.78480681     2.29987085    -3.99624478    -0.74828096     1.24220872    -0.68913402
O      -3.85268589     2.46030159    -7.99129074    -0.69721773     0.11037564     0.40132094
O      -7.89544351     2.38234568    -4.03193301    -0.04657315     0.42187025     0.12971537
O      -7.72694039     2.35603708    -7.89982024    -1.06085771     1.20714520    -0.09642741
O      -3.83906066     6.40587386    -3.90601780    -0.82435796    -0.93214798     0.00145073
O      -3.97224394     6.40284184    -7.89314907     0.38792575    -0.91417513    -0.35232446
O      -7.87866698     6.33702056    -3.82863806     0.21995373    -0.00908338    -1.00689913
O      -7.77574489     6.39280857    -7.91778091    -1.01385808    -1.14760345     0.50442786
O      -3.70063255     4.20861761    -2.09963913    -0.83730961     1.13911958    -0.05147824
O      -3.96368902     4.37872546    -5.90546093     0.28942746    -0.23792582    -0.66098088
O      -7.88688661     4.27304562    -9.95401217    -0.46695846     0.50344630    -0.63426217
O      -8.00496031     4.47826542    -5.88503743     0.40722146     0.04144391    -0.18474548
O      -7.85351427     8.70551441    -2.08259555    -0.09555835    -0.21590864    -0.03283978
O      -8.00704489     8.69678562    -5.94433874    -0.48620171    -0.49070646    -0.00644499
O     -11.61013519     8.60573186    -5.86692706    -2.14227736     0.63753503    -0.28360879
O     -11.51695566     8.67211323   -10.18703681     0.12268858     0.66564072     0.83616407
O      -1.91130744     4.12450522    -4.10471846     0.21893263     1.00887951     0.20945431
O      -2.10717182     4.44555560    -0.12918303     1.12593272    -0.13177774     0.74720936
O      -5.98313823     4.13762238    -3.90728546     1.50487996     1.21255093    -0.62812011
O      -5.87876962     4.42331870    -8.01722753    -0.73780303    -0.46294510     0.15415443
O      -1.93575485     0.27919344    -4.03318087     0.65981129    -0.59674007     1.05003137
O      -5.98274523     8.54241235    -7.93356760     0.40488545     0.39729298    -0.11272707
O      -5.92039214     0.50541812    -4.12664758     0.91249851    -0.67886060     0.32915855
O      -5.89664526     0.53024303    -8.00287365     0.14902683    -0.81103290     0.01812971
