# total energy = -631.21162590 eV

CRYSTAL
PRIMVEC
        0.00285542     0.02004370    -7.95977623
       -7.82940539     0.00763210    -3.98158109
       -3.91729101     8.74642787     0.01461334
PRIMCOORD
56 1
Li     -3.97260382     2.26493566    -1.93417343     0.20773825    -0.04643509    -0.07696002
Li     -3.99102868     2.36409330    -6.05470193    -0.09193461    -0.39967463     0.48373983
Li     -7.91522353     2.22849958    -9.91347607    -0.01210050     0.13183258    -0.24966956
Li     -7.77772559     2.29914164    -6.03364423     0.04666356    -0.00824430     0.66606307
Li     -4.01043729     6.27512045    -2.14513393     0.45039880     0.90961536     1.34303466
Li     -3.92109870     6.53914598    -5.92574098     0.09940437     0.01737552     0.13716164
Li     -7.85247749     6.68792307   -10.01698971    -0.25756807     0.32757256     0.37919104
Li     -7.73492736     6.52796082    -5.71226539    -0.15663703    -0.03794852    -1.26982038
Ti     -2.06113795     2.06087525    -4.00033690    -0.36093969    -0.42068014    -0.48200473
Ti     -5.98384141     6.42393701    -7.97889922     0.52081830     0.49433965     0.22468248
Ti     -8.05738585     4.33837004    -7.75704325     0.25100440     0.31761791    -0.02425489
Ti     -7.79941981     4.38453352    -3.67516186    -0.87374905    -0.43298613    -0.76136684
Ti     -3.84726477     4.38771267    -7.65177218     0.46833469    -0.37816342    -1.10608431
Ti     -3.97275616     4.42324071    -3.75932231    -0.33581466     0.14134559    -0.64575448
Ti     -1.71652712     0.07464541    -1.87519293    -0.54580031    -0.98742432    -0.21756483
Ni     -5.86724150     2.41679614    -8.11915426    -0.41887190    -0.46362290     1.10143493
Ni     -5.89007235     2.07368503    -3.92203652    -0.76182111     0.15317455    -0.73090462
Ni     -9.81658139     6.66522445    -8.01146775     0.10439551     0.09535619     2.25917733
Ni     -9.77784531     6.49327482    -4.02963060    -0.39794643     0.53230558     0.09735329
Ni     -1.98640871     2.08994082    -8.02342427     0.02355998     0.11872994     1.21785224
Ni     -5.90313147     6.60739070    -3.91754260     0.53740810     0.29145980    -0.42195680
Ni     -5.77440331     8.76062441    -5.94185390    -1.25111574    -1.15942924    -0.56873848
Mo     -5.95437550     0.11120883   -10.22061398     3.30761450    -0.87664530    -1.21944200
Mo     -5.72647169     0.01424434    -6.30068208     0.32313455    -0.81791043     0.09874685
O      -1.99679219     1.96431095    -1.92888190     0.10678308     0.30027954    -0.80977143
O      -2.13316750     1.83209479    -5.95202117     1.23218844    -0.01559177    -0.61822400
O      -5.89535317     6.83540642    -1.91330670     0.01254893    -0.21826358    -0.82823614
O      -5.78624966     6.85958892    -6.01186688    -0.43391437     0.73025439     0.47440951
O      -5.87446764     2.05237813   -10.03261492    -0.36361064     0.33672224    -0.04081283
O      -5.91055728     1.84571165    -5.83977987     0.52864932     0.65870784     0.72784223
O      -9.81469492     6.89573248    -9.77485036    -0.22381587     0.45059934    -1.41126795
O      -9.71483323     6.85178438    -6.03521798    -0.95931130    -0.27483517    -0.29670748
O      -4.03723276     2.48383548    -3.95726270     0.42221684    -1.35266296     0.19886249
O      -3.97243938     2.35005672    -8.00575657     0.60574207     1.54220581     0.32029991
O      -7.81812058     2.37782589    -3.94724752    -0.38449468     0.60565825    -0.07179196
O      -7.89441704     2.39206829    -7.97724344     0.25306695     0.31827753     0.05902871
O      -3.85622981     6.43469932    -3.97271554    -0.36070561    -0.67923731    -0.23845977
O      -3.94985869     6.29851626    -7.91749466    -0.13140901    -0.03098091    -0.14631351
O      -7.80672533     6.47371099    -3.95430886    -0.57571409    -1.28936366     0.76535790
O      -7.91613727     6.33531884    -7.97630614     0.44996589    -0.02443287    -0.13709078
O      -3.89491656     4.43685961    -2.00980096     0.19621481    -0.52443795     0.10577946
O      -3.89368862     4.25628550    -5.91316041    -0.56519968     0.49264341    -0.07015540
O      -7.96651709     4.35350265    -9.90676549     0.58551745     0.17516759     0.31414629
O      -7.79430263     4.42787089    -6.01901004    -0.40389387    -0.24333791     0.04303648
O      -4.06271539     0.07767010    -9.97568344    -1.45907049     0.11367192    -0.29054344
O      -7.89736366     8.67602927    -6.01173046     0.07053288     0.29662652    -0.15011556
O      -7.77285386     0.10993785    -6.08995183     0.56044516    -0.52743895     0.29328919
O      -7.71090908     0.13541424    -9.84447838    -0.88190193    -0.05611624    -0.31773639
O      -2.07267402     3.98911365    -4.20505849     0.51208920     0.39280257     1.17376002
O      -9.79855887     4.59148800    -3.96273253     0.60491808     0.30375090    -0.36047198
O      -5.92723992     4.65136486    -3.90059290     0.53375840     0.32139757    -0.34676150
O      -5.88695198     4.41298956    -8.01947275    -0.29126704     0.15473575    -0.00507833
O      -1.97246961     0.12495552    -3.95265735    -0.35796397     0.20974384     0.12098182
O      -5.90938766     8.43591876    -8.01541017     0.28044939     0.19719098     1.02029623
O      -9.86715229     8.43388726    -4.07868346    -0.13301507    -0.52220414     0.62730197
O      -5.80539416     0.54468478    -8.03072532    -0.45025336     0.46214946    -0.33911692
