# total energy = -630.63525995 eV

CRYSTAL
PRIMVEC
        0.00279571     0.02951795    -7.98606283
       -7.83802570     0.01298533    -3.99532603
       -3.92160916     8.71933433     0.00634407
PRIMCOORD
56 1
Li     -3.92977744     2.23536926    -1.95604101     0.03808480     0.07925057    -0.09199867
Li     -3.90799497     2.01830367    -5.95785471    -0.79977357     0.15550221    -0.41162681
Li     -7.92244635     2.24911688   -10.01721356     0.43850631     0.13413736     0.27294662
Li     -7.84430478     1.87550989    -5.98170734    -0.01765956     0.84988697     0.01837900
Li     -3.94463326     6.56217164    -1.89662459    -0.34532118    -0.35440763    -0.16121010
Li     -3.88594363     6.41539339    -5.98446674    -0.03097379     0.09791215     0.77602980
Li     -7.86252685     6.26342992    -9.91684427    -0.21475823     0.63511684     0.10335398
Li     -7.89014872     6.78484968    -5.89312458    -0.36711521    -0.47665612     0.31013241
Ti     -1.99090980     2.21633977    -4.06303872     0.43071299    -0.04804019     0.31564509
Ti     -5.97546246     6.77867560    -7.83032899     0.00820625    -2.21700149    -0.82887096
Ti     -7.74646662     4.35227363    -7.65113053    -0.04850187    -0.35449457    -2.04509689
Ti     -7.73643514     4.36551138    -3.73218866     0.24176512     0.36110053     0.95346103
Ti     -3.74785831     4.45805304    -7.66526074    -0.36531827    -1.43756282    -0.28608701
Ti     -3.92564767     4.34034544    -3.78941760    -1.00369759     0.49668645     0.51946704
Ti     -6.03604605     8.67878551    -2.13645249    -0.79019871    -0.27843310     0.13223702
Ni     -5.69655724     2.53253939    -8.14195385    -1.97856426    -0.74833660     0.58241177
Ni     -5.96493137     1.99969828    -3.99554236     0.15824654     0.37530670    -0.61198922
Ni     -9.87650593     6.70643523    -7.95166125     0.02641870    -0.70644208    -2.00844243
Ni     -9.83205774     6.39484928    -3.96324893     1.25118749     0.60376751    -0.53287625
Ni     -1.87437460     2.14641909    -8.08314459    -0.42932241     0.59543868     0.47474070
Ni     -5.87887110     6.65639225    -3.98110123    -0.27493847    -1.43245838     0.40119972
Ni     -5.87127120     8.71005649    -5.89321119     0.00492577    -0.36543902    -0.46908876
Mo     -5.94517778     0.05442222   -10.31415994    -0.31192871     0.24189245     0.01422585
Mo     -9.90624160     8.64577285    -6.41334848    -0.07621255     1.73313770    -0.24677766
O      -1.84539498     1.85900670    -2.06478634    -0.88684095     0.26130965     0.54406306
O      -2.02283130     1.84869292    -5.93102360     0.50772666    -0.77322610    -1.08123593
O      -5.91256380     6.80824072    -1.93097023     0.03625519    -0.00865376     0.19975514
O      -5.93557292     6.79401799    -5.86410040     0.69620574     1.06341761    -0.81148507
O      -5.87499737     1.99131002   -10.11841266     0.36054949     0.24189004    -0.41990421
O      -6.07434690     1.90065708    -5.85272159     1.61378949    -0.16108416    -0.18399092
O      -9.81794672     6.83221871    -9.85001521     0.31686779     0.62381932     0.49587473
O      -9.94086492     6.72662970    -6.20152977     0.55247396     0.16062627     2.25230172
O      -4.03451331     2.26319694    -4.06792106     1.14623264     0.91173949     0.63301053
O      -3.82087945     2.52977626    -7.99918898     0.36649932    -0.37921571     0.00895110
O      -7.82231840     2.42695045    -3.93079839    -0.41559115    -0.66244677    -0.31552066
O      -7.76169556     2.42682141    -8.11156928    -0.05702387     0.43922047     0.91693132
O      -3.89386682     6.33721690    -3.95260297     0.17727783     0.37891155    -0.23179642
O      -3.86846913     6.32179377    -7.94767018    -1.33253747     0.84444648     0.13229145
O      -7.90079820     6.34726218    -4.01143295    -0.05516061    -0.21679258     0.54263428
O      -7.91379469     6.50741272    -7.86197142     0.78049200    -0.88967207    -0.26239399
O      -3.89096407     4.28087272    -2.03620479     0.29765432    -0.05610420    -0.32541647
O      -3.74449919     4.38318260    -5.91184192    -0.55936396     0.08579661     0.07267090
O      -7.78537965     4.42615779    -9.90518005    -0.39968877    -0.15626015    -1.36876314
O      -7.91912511     4.33423662    -5.96390631     0.01846555     0.14059150     1.37317960
O      -4.03024126     0.08672473    -2.05745201     1.13878376    -0.15318412     0.02067462
O      -8.21907032     8.70344751    -5.88088665     1.31684023     0.07013620    -0.11819560
O      -7.78053575     0.02236006    -5.96703271    -0.88397589    -0.95843674    -0.50983315
O      -7.70404077     0.14925122   -10.06229474    -0.33612297    -0.43176471     0.50903859
O      -1.91801121     4.01839892    -4.01833179    -0.52826436     0.53173460     0.04223768
O      -9.70717082     4.50687111    -3.93419394    -0.42957531     0.13649032    -0.45711040
O      -5.86439164     4.67343819    -3.96579778     0.34322010     0.44923593    -0.50642677
O      -5.82938240     4.50652327    -8.04606954     0.24375141    -0.39654244     0.76860747
O      -2.03901794     0.04555056    -3.99936779     0.37300312    -0.19989673    -0.08671819
O      -5.84103048     8.52083402    -7.88287937    -0.19777594     1.71095812    -0.10019158
O      -9.96170979     8.28409995    -4.07862658     0.46536449    -0.22771608     0.27906172
O      -5.76061385     0.64446524    -8.13432063    -0.28777322    -0.07191648     0.54959017
