# total energy = -630.44791856 eV

CRYSTAL
PRIMVEC
        0.00279571     0.02951795    -7.98606283
       -7.83802570     0.01298533    -3.99532603
       -3.92160916     8.71933433     0.00634407
PRIMCOORD
56 1
Li     -4.09791294     2.43663225    -1.98206828     0.09153671    -0.39839127     0.52306064
Li     -3.83617396     2.38289779    -6.02211099    -0.02413450    -0.24018181     0.08877588
Li     -7.83702531     2.43577853    -9.79959922    -0.22795730     0.23013153    -0.62735463
Li     -7.80327442     2.15790915    -5.93747440    -0.28580301     0.52868581     0.36567542
Li     -3.95275441     6.73842985    -2.00739888     0.90929051    -0.04264099     0.20335001
Li     -3.92874482     6.45889488    -6.00892256     0.35921556    -0.09936984     0.57139935
Li     -7.91339747     6.32677614    -9.94690901     0.04307616     0.44762438     0.00609773
Li     -7.75554839     6.74233575    -6.14627995    -0.24570330     0.04928304     1.08457551
Ti     -1.98300731     2.00168955    -3.92585845     0.62699428     1.45805695    -0.70149004
Ti     -5.72330359     6.43071977    -8.05112720    -2.03096678    -0.14757562     0.29062869
Ti     -7.98585243     4.43977551    -7.75513600     0.99912301     0.63284698     1.06444294
Ti     -7.76117468     4.41182325    -3.79317066    -0.73426453    -0.44666805     0.49429188
Ti     -3.77666981     4.31945380    -7.74509229     0.39621069    -0.61759283     0.14436416
Ti     -4.03027348     4.40569902    -3.72590537     0.18482038     1.73711131     0.52830855
Ti     -2.28686687     0.02517481    -1.96458179    -0.94598373     0.03944108     1.54724323
Ni     -5.86116246     2.31879394    -7.92982423    -1.77549738    -0.30885248    -0.36066749
Ni     -5.85203999     2.16190803    -4.07693985     0.05767303     0.44278337     0.44922224
Ni     -9.86137822     6.43523339    -7.91645132     0.79095271     0.90909184    -0.80969117
Ni     -9.75227810     6.61463394    -4.10854080     0.21964140    -0.06723309     0.31310545
Ni     -1.75256604     2.07282813    -7.94018338    -1.46967630    -0.64488219     0.29798615
Ni     -5.78145740     6.56620891    -4.02599658    -0.87700215     0.35864705    -0.01505311
Ni     -2.00973026     0.03368265    -6.03497116     0.75586264     0.40113165     0.40510403
Mo    -10.00913426     8.69318561   -10.30007404    -0.46830975    -0.45017060     3.09860077
Mo     -5.83551698     0.23440345    -6.38721003     1.15974234    -0.97645537    -1.37417770
O      -2.08263424     1.95326117    -1.91143993     0.81483563     0.07781540    -1.23921026
O      -1.87230757     1.92073946    -5.98867917    -0.23203172    -0.55886598     0.17851352
O      -5.79061627     6.82816976    -1.96896688    -0.75082486     0.19678343    -0.38121136
O      -5.76630385     6.91324542    -5.93416422    -1.01291715    -0.26895443    -0.68871104
O      -6.12752016     1.76483241    -9.81979896     1.96909696     1.28833322     0.90477770
O      -5.85826444     2.12568148    -6.08178628     0.41112426     0.24500217     0.51236777
O      -9.79710662     6.77915598   -10.12325677    -0.08119493    -0.13280537    -0.28304747
O      -9.72199619     6.93748557    -5.95883164    -0.27937805    -0.43078983     0.08829735
O      -3.85069497     2.56038480    -4.08634880     0.49427199    -2.22683674     0.77236524
O      -4.09716351     2.39345302    -8.00872074     0.95251573     0.67983151     0.17869223
O      -7.67789616     2.37555213    -3.87228783    -0.57984441    -0.21407276    -0.84408474
O      -7.84060635     2.46082533    -7.86664210    -0.76783638     0.07380234    -0.44750358
O      -3.91045726     6.40228608    -3.82057968    -0.39034046    -0.66523883    -1.04496231
O      -3.88502663     6.32233269    -8.03926526     1.28409475     0.57529713     0.16765213
O      -7.80085707     6.31930627    -4.04034408     0.42293346     0.09559091     0.11721422
O      -7.75145370     6.44444252    -7.96526360    -0.23336995    -1.10621663    -0.25239541
O      -4.19889581     4.43562286    -1.94401574     0.87293512    -0.54897280    -0.77550341
O      -3.95075948     4.43747866    -5.96275981    -0.33062736     0.36637944    -0.87316664
O      -7.86359826     4.45625590    -9.96314586    -0.02058274    -0.33272466    -0.46240009
O      -8.09784730     4.34505241    -5.98756280     0.60809014     0.22614050    -0.48268783
O      -4.07195855     0.11546936    -9.97063346     0.14874183    -0.39730764    -0.31721125
O      -4.00568901     0.23530819    -5.99311068     0.13818628    -0.44500725    -0.28287938
O      -7.52800805     0.19857929    -5.88166560    -1.16935631    -0.27682543    -0.15859937
O      -3.92613804     8.65097445    -6.04140610    -0.41671537    -0.36786511    -0.66431526
O      -2.03458138     4.51653991    -4.05770001    -0.10041809    -0.13657314     0.35208541
O      -1.94996225     3.91338387    -7.90495489     1.05941019     0.17417002    -0.28699673
O      -5.91319848     4.00563162    -4.01364412     0.03688179     0.64517203    -0.41898209
O      -5.81892610     4.56923161    -7.99967564    -1.24331811     0.69607595     0.34643180
O      -1.89618506     0.23062788    -3.89282912    -0.21526706    -0.78994305    -0.17048247
O      -1.97512677     0.04674776    -8.07798457     0.59243910    -0.20265873     0.21390531
O      -5.75618272     0.07645406    -4.01770122     0.01734905     0.84512863    -2.40534167
O      -9.89775208     8.29096901    -8.14604408     0.32664207    -0.21107012     1.18270098
