# total energy = -630.48585479 eV

CRYSTAL
PRIMVEC
        0.00285542     0.02004370    -7.95977623
       -7.82940539     0.00763210    -3.98158109
       -3.91729101     8.74642787     0.01461334
PRIMCOORD
56 1
Li     -4.09807054     2.30376799    -1.97461395     0.92071072     0.31158601     0.03803766
Li     -3.85000803     1.86918157    -6.16943309    -0.11203954     0.05356171     0.93224601
Li     -7.92888127     2.37992952   -10.05664453     0.61802338    -0.25353634     0.30410272
Li     -7.89061769     2.46325314    -5.90613966     0.34713021    -0.50565664     0.09791668
Li     -3.78321107     6.52104441    -1.93292035    -0.46920857    -0.45162944    -0.34973662
Li     -3.81406626     6.54526056    -5.84634442    -0.19480683     0.03167964     0.32142740
Li     -7.98360878     6.31981816    -9.84546810     0.65279866    -0.08471535    -0.00076769
Li     -7.81464472     6.34151017    -5.73726587     0.33739530     0.37784442    -1.10002095
Ti     -1.88046861     2.26351085    -3.99008595    -1.18130176    -0.38162110    -0.06490717
Ti     -5.81968415     6.64132393    -7.92286990    -0.55385816     1.61626532     0.16679189
Ti     -7.80777722     4.39826036    -7.69229972     0.57893472    -0.16905103    -0.32486548
Ti     -7.82148618     4.38312214    -3.74762195    -0.02157897    -0.44433335     0.42847589
Ti     -3.84041405     4.40214040    -7.68236051     0.03321740    -0.39370607     0.06077884
Ti     -4.14828097     4.41287147    -3.82741673     0.99661286     0.21313195     1.45790519
Ti     -6.19316836     8.63886832    -2.09496772     0.51805156     0.66013895     0.34078307
Ni     -5.80232228     2.32425883    -7.88931781    -1.01881572     1.19384732    -0.64952057
Ni     -5.82583763     2.18181615    -4.09455802    -0.82195078    -0.38023162     0.44483994
Ni     -9.70120968     6.45066035    -7.77496649     0.22990563     0.37078516    -0.53915963
Ni     -9.71523775     6.57084779    -4.01321090    -2.38458886    -0.80158951     0.34935528
Ni     -1.99594777     2.06267600    -8.02551445     0.67600561     0.27084010     0.18164680
Ni     -6.00040452     6.80431760    -3.97026275     0.61259859    -1.20370692    -0.22729500
Ni     -5.83619466     8.73187640    -5.92967397    -0.84605856    -0.69817362    -0.91894411
Mo     -5.99186754     0.12018259   -10.17582279    -0.99734023    -0.70736887    -0.46525936
Mo     -9.73425218     8.59072697    -6.31239428    -0.51909090     0.90092526    -1.18386782
O      -2.00086959     1.87079424    -2.00260770     0.53389318     0.09958210    -0.41826968
O      -1.90930569     1.82775403    -5.89482712    -0.65148540    -0.01656478    -1.11441563
O      -6.10961564     6.75327277    -1.96363469     0.87767349     0.06636304    -0.29589605
O      -5.95650053     6.82099304    -5.98391200     1.33066960     1.30578348     0.62989853
O      -5.89388109     2.01796379   -10.11004883     0.08721031     0.29255472    -0.21613138
O      -5.78451420     1.89801622    -5.90108986    -0.48936938    -0.48126419    -0.56893930
O      -9.60669899     7.05373274    -9.59603503    -1.71309270     0.01145274    -0.09544683
O      -9.67747730     6.69322444    -5.93271907    -0.22401316    -0.17333095     0.00879596
O      -3.97646027     2.44748867    -4.12441763     0.73766502     0.26099916     0.76142650
O      -3.89934653     2.45952353    -7.95010816     0.52045778     0.06344502     0.09845965
O      -7.75432571     2.40293407    -4.04334874    -0.61112542     0.58575394     0.23777723
O      -7.80848973     2.34633075    -8.04843610    -0.04351838     0.93442839     1.25626180
O      -3.66737257     6.35563849    -3.87131654    -0.50649987    -0.00658377    -0.58103401
O      -3.94540725     6.41212134    -7.93764982     0.41140685     0.17156573    -0.03321290
O      -7.96824530     6.35779249    -3.96391766     1.10447226     0.26488970     1.00743163
O      -7.73292674     6.32142120    -7.78120690    -1.10454681    -0.68793442    -0.96682220
O      -4.03807049     4.51063476    -2.00511974    -0.04934872    -0.56098872    -1.02766558
O      -3.96280117     4.65629503    -5.92544750     0.62598598    -0.37606498    -0.60617286
O      -7.76221585     4.36004012    -9.89838814    -0.58735628     0.19287151    -1.10574378
O      -7.84605147     4.46199224    -5.93526498    -0.07997785    -1.13627163    -0.09422726
O      -4.03319371     0.11825644    -9.94058512    -0.54310727     0.55334701    -0.81143309
O      -7.90697414     8.63149447    -6.07698913     0.88605588     0.33718407     0.26653317
O     -11.51115664     8.49970597    -6.26490457    -0.53320933     0.40616514     1.10274750
O      -7.80121276     0.16151719   -10.02939470     0.64452291    -1.00245143    -0.09379964
O      -1.96400349     4.11752049    -3.95548804     0.44109990    -0.09384722    -0.21829963
O      -9.80267346     4.49956769    -4.09901412     0.76733649     0.54702023     0.64672332
O      -5.93743248     4.90400809    -4.10918838    -0.87958459     0.07680422     0.32588225
O      -5.84458916     4.28362448    -7.90604126    -0.20980865     0.17690168    -0.04818373
O      -1.98373408     0.03817052    -4.01021344    -0.24728763    -0.10594774     0.89110944
O      -6.03781582     8.53653001    -8.08350135     1.17532036    -0.52772472     0.57537167
O      -9.83768059     8.50922424    -4.04916162     0.41711034    -0.09923193     0.64006517
O      -5.84699609     0.54879253    -8.11217991     0.39178229    -0.44570490     0.61842624
