# total energy = -630.50117462 eV

CRYSTAL
PRIMVEC
        0.00279571     0.02951795    -7.98606283
       -7.83802570     0.01298533    -3.99532603
       -3.92160916     8.71933433     0.00634407
PRIMCOORD
56 1
Li     -3.84543024     2.36068007    -1.93859499    -0.51134814    -0.33362075    -0.27750296
Li     -3.97753726     2.26591710    -5.94562592     0.03602991    -0.24463624    -0.57809016
Li     -7.91446026     2.07982569   -10.01232918     0.58055883    -0.07902338     0.12515454
Li     -7.76639296     2.19247454    -6.07010470    -0.19146782     0.16538789     0.60692249
Li     -4.08946123     6.39408337    -1.86757861     0.85620322     0.14358881    -0.42865036
Li     -3.99268937     6.52645987    -5.94940674     0.37034452     0.02962167     0.14365217
Li     -7.93064660     6.57069651    -9.83462819     0.44803676    -0.11978383    -0.60189827
Li     -7.96653404     6.41270838    -5.80485575     0.88898141    -0.01726302     0.11517805
Ti     -1.97423431     2.34964677    -4.00062909     0.11848436    -1.23764398    -0.71113318
Ti     -5.92019417     6.84419172    -7.90450764     0.05624510     0.89828859    -0.28647185
Ti     -7.80380101     4.41158593    -7.81944075     0.77542662    -0.98412074     1.02569455
Ti     -7.87962450     4.30661515    -3.64614842    -0.57372695     0.86101128    -0.54181008
Ti     -3.95745028     4.35888998    -7.75408581     0.59414723    -0.33824724    -0.32567375
Ti     -4.12550832     4.34938866    -3.80349602     1.12203616     1.23713292    -0.31275977
Ti     -1.82085642     0.01927374    -2.22614151    -0.48114637    -1.05305930    -0.20904875
Ni     -5.92377684     2.16357564    -8.02161914     0.27349062     0.56229149    -1.43520026
Ni     -5.92594266     2.23820104    -4.15461957     0.18413375     1.06851000     0.49369037
Ni     -9.69289968     6.52409173    -7.93420239    -3.27850731    -0.11398240     0.24239855
Ni     -9.84355673     6.61253183    -3.91774099     0.34045100    -0.52552175     0.63879369
Ni     -2.01589400     2.18536528    -7.99469010     0.48522412     0.08216989    -0.07738729
Ni     -5.89243094     6.58521240    -3.97626349    -0.20553106     0.22055369     0.11803504
Ni     -1.88693909     0.12241897    -5.93840997    -0.69065813    -1.32754451    -0.51191540
Mo     -9.78320896     8.71872528   -10.23450280    -0.12832420     0.58665146    -1.01765384
Mo     -9.76274120     8.54529726    -6.27832035     1.95903062     0.86391397     0.56145922
O      -1.87488585     1.90179372    -2.03181894    -0.62188400     0.06356323     0.23088534
O      -1.95122762     1.89624683    -5.97022864    -0.23939193     0.99848901    -0.39536802
O      -5.91442140     6.72467779    -1.89651726    -0.02092724     1.04972945    -0.56141290
O      -5.89600855     7.02266751    -5.94906929    -0.31560460    -1.12336968     0.46108138
O      -5.92277193     1.97965010    -9.94740154     0.12919511    -0.11974096     0.03399271
O      -5.91218754     1.99002866    -6.20900994     0.11975590    -0.43900921     2.09410801
O      -9.82386796     6.83830817    -9.88447743     0.28253161    -0.15068889    -0.14529841
O      -9.78390764     6.69803040    -5.90151107    -0.37422876     0.13949066     0.33933512
O      -3.88508768     2.28222845    -4.04429165    -1.20003981     1.72584915     0.60676525
O      -3.92490647     2.40708747    -8.09152853    -0.39685755     0.06765423     0.77501918
O      -7.92704704     2.40781660    -3.97164675     0.99248182    -0.55783563    -0.38865491
O      -7.90087641     2.26504890    -8.00142355     0.77894901     1.72043078    -0.06663999
O      -3.86457035     6.35622497    -4.10151987    -0.35419716    -0.79818492     1.12405953
O      -3.96372497     6.34105591    -7.91063187    -0.23165418     0.71834225    -0.18885707
O      -7.92806406     6.33930963    -3.78111158     0.13255270    -0.12422237    -1.20305893
O      -7.88759563     6.37476616    -7.94530279     1.98444282     0.47668620     0.09966706
O      -3.89411629     4.58026074    -2.06691915    -0.27869464    -1.26074168    -0.11974508
O      -3.88063905     4.41632147    -6.00670804     0.22730770    -0.29753019     0.78070158
O      -7.97277480     4.46266157    -9.87792886     0.10077287    -0.16948440     0.06858668
O      -7.91979154     4.55729685    -6.06202641     0.21722049    -0.63500367    -0.35629217
O      -7.91369634     8.71547896    -2.04034107    -0.71444997    -0.23786611     0.05234849
O      -4.02269646     0.05035906    -6.15448095    -1.23463198    -0.50536300     0.37858060
O     -11.64527254     8.63960120    -6.05512810    -0.87180619    -0.00243461     0.35672545
O     -11.67823284     8.67810499   -10.05638614     1.18090825     0.60903118    -0.23634255
O      -2.00236867     4.15614061    -3.94659176     0.15415935     0.82710026    -0.36022232
O      -1.94811324     4.02112774    -0.11590215    -0.45818454     0.25037451     0.40142012
O      -5.97338802     4.25861568    -4.11441761    -0.24688964    -0.61452913     0.24330852
O      -5.82609438     4.35381761    -7.97476772    -1.44791203    -0.06852596    -0.27342478
O      -1.92208255     0.28269041    -4.06630472    -0.07994720    -0.76146264     1.18972801
O      -5.90458810     8.71407209    -8.02187285     0.20029638    -0.62683370     0.11460188
O      -5.78371736     0.43799726    -4.09135614    -0.69922657    -0.97995345    -0.16201384
O      -5.97366441     0.30077454    -8.02904723     0.26567410     0.41854604    -1.35458422
