# total energy = -630.91956509 eV

CRYSTAL
PRIMVEC
        0.00285542     0.02004370    -7.95977623
       -7.82940539     0.00763210    -3.98158109
       -3.91729101     8.74642787     0.01461334
PRIMCOORD
56 1
Li     -4.05197647     2.41363459    -1.90790349    -0.02053266    -0.35312998    -0.15127686
Li     -3.98511168     2.26785952    -5.96246041     0.13600632    -0.21682745     0.28928524
Li     -7.81580494     2.18244222    -9.99987842    -0.16596391     0.15531620     0.42371991
Li     -7.83222106     2.23056767    -5.78307776     0.47954817     0.39468821    -1.00313821
Li     -3.80527732     6.40707759    -1.89387706    -0.28624203    -0.18575946    -0.03814863
Li     -3.84161602     6.60393241    -5.80684050    -0.25691222    -0.40344257    -0.24436993
Li     -7.79896802     6.42050888    -9.86715628     0.03138046     0.04030097    -0.56127562
Li     -7.88932786     6.58704037    -5.97055915     0.64356892    -0.43349194     0.50858654
Ti     -1.99662641     2.26442573    -4.03665630     0.23319941     0.85404325    -0.28100970
Ti     -5.85613523     6.69043872    -8.02098547     0.71436120     0.14442140     0.43375012
Ti     -7.87040569     4.48560609    -7.85657276    -0.62464002    -1.61434813     2.42753518
Ti     -7.92678560     4.30841215    -3.78886867    -0.90539798     0.68312926     0.21737167
Ti     -3.91306522     4.29382062    -7.63642348     0.29772599     2.81937864    -1.33902091
Ti     -4.14349464     4.47048598    -3.72732415     0.91335957    -1.33765125    -0.37736976
Ti     -1.89430991     0.08051315    -2.13776376    -0.75324840    -1.24758282     0.13291222
Ni     -5.91722537     2.36650459    -7.97076163    -0.73204512     0.45648668    -0.55828884
Ni     -5.91808198     2.29506789    -4.05143978     0.45381009    -1.26711390     1.00048492
Ni     -9.73099513     6.64705876    -7.86043342    -0.53601143    -0.20313385    -0.17687744
Ni     -9.72027823     6.51620568    -3.98505127    -0.45375138    -0.68093138     0.21851014
Ni     -1.94202342     2.04069770    -7.92191232    -0.31631341     0.55650458    -0.20697899
Ni     -5.89448544     6.56423144    -3.92449879     0.11760019     0.29724872    -0.88912562
Ni     -5.82476098     8.72992601    -5.90038590    -0.47001079    -0.32870373    -0.30500894
Mo     -9.81175739     8.62622983   -10.24546091     2.35955899     2.49541222     0.26790385
Mo     -9.76686892     8.70563857    -6.20443796     0.70019957     0.20616119    -1.21477280
O      -1.83144815     1.91275549    -1.92396530    -0.92665708     0.22332987     0.08242039
O      -1.98497328     1.83755517    -6.01125489     0.08974740    -0.12377653     0.01208336
O      -5.89283145     6.77774511    -2.02022635     0.33428131     0.22261715     0.31578978
O      -5.78312216     6.87973881    -5.84473396    -0.37729009     0.27760657    -0.03797830
O      -5.99515195     2.05349454   -10.03949850     1.17952093    -0.42152663     0.04172722
O      -5.88359214     2.06204841    -5.93599712     0.18388838    -0.60149439    -0.60723674
O      -9.62523767     6.81802060    -9.91053652    -1.19706677    -1.11517680     0.57861224
O      -9.78817505     6.70929803    -5.96391975     0.12798028     0.99422745     0.33459819
O      -3.88775511     2.37079791    -3.90589905    -0.84356055     0.34606977    -0.45162910
O      -3.97749142     2.48267210    -7.92992178    -0.06003664    -1.66246638    -0.09209223
O      -7.83256012     2.39488938    -3.95151691    -0.51441079    -0.94585842    -0.13156459
O      -7.85543017     2.42743421    -7.92102266     0.13711561     0.49145282    -0.43734004
O      -3.77547042     6.31510952    -3.87544230    -0.65398664     1.01717012    -0.27904981
O      -3.89740848     6.39322014    -7.90196754    -0.23220724    -0.06720345    -0.05733973
O      -7.81338126     6.21647477    -4.02924477     0.13404411     1.22563706     0.29840779
O      -7.84494082     6.44353611    -7.89766927     0.30805102     0.38235610    -0.55413532
O      -3.98481351     4.35610793    -1.98837577    -0.18630635     0.25267002     0.03794027
O      -3.88299123     4.43405247    -5.90868126    -0.21412412    -0.20781566     0.46160867
O      -7.90860023     4.37740035    -9.95839379    -0.20967699     0.23020289    -0.02942437
O      -7.89315302     4.45063297    -6.04756821    -0.06707008    -0.20151695    -1.40158466
O      -7.92040892     8.73565881    -9.95604636    -0.10658459     0.45337582    -0.38905422
O      -7.96853947     8.69380573    -6.00980328     0.13653188     0.00208619     0.09936284
O     -11.57560641     8.73716554    -5.92463097    -1.59561021    -0.27063062    -0.20468357
O     -11.54679526     8.69529003    -9.89041614    -1.08751055    -0.28378625    -0.25909252
O      -2.07915361     4.12183729    -4.07014732     0.85141741     0.41319675     0.14417072
O      -2.01747855     4.32255854    -0.17577678    -0.01659427     0.14930617     0.88080408
O      -6.02003684     4.14919005    -4.12125856     1.24720767     0.35041929     0.27015264
O      -5.96722709     4.57074181    -8.09820416     1.46056510    -0.28111128     0.62617609
O      -1.88469799     0.25012758    -4.00057562    -0.12753958    -0.36030243     0.61063244
O      -5.96181114     8.58197490    -8.05835921     0.63007540    -0.58148628     0.74548323
O      -5.87405368     0.32402876    -4.08887974    -0.01902394     0.39465289     0.27964127
O      -5.91284399     0.58983140    -8.02276326     0.28237600    -1.40398090     0.64895926
