# total energy = -630.97542265 eV

CRYSTAL
PRIMVEC
        0.00285542     0.02004370    -7.95977623
       -7.82940539     0.00763210    -3.98158109
       -3.91729101     8.74642787     0.01461334
PRIMCOORD
56 1
Li     -3.95543791     2.12228395    -1.89005628     0.26460881     0.24349970    -0.35400642
Li     -3.97331843     1.94858428    -6.13368542     0.04755680     0.45443908     0.49525930
Li     -7.82691366     2.24563501    -9.91480315     0.05976706     0.13015650    -0.68817998
Li     -7.84975239     1.94489091    -6.08974971    -0.09206462     0.57890294     0.44205161
Li     -3.87569783     6.53192856    -1.92919790    -0.52839574    -0.19982637     0.01567727
Li     -3.81089007     6.31709905    -5.90991585    -0.18469365     0.24881524     0.51833223
Li     -7.85546699     6.69789966    -9.91297933     0.12751971    -0.57567028     0.09798976
Li     -7.89425436     6.46806515    -5.78970223     0.49134975     0.11760217    -0.49545745
Ti     -2.02148012     2.29681081    -4.09894257    -0.45265131    -0.89249785     1.18629706
Ti     -5.85223123     6.71246540    -7.79152994    -0.69010197    -1.06336016    -0.14093822
Ti     -7.80138250     4.37374015    -7.75145550     0.35833417     0.60112515     1.11367039
Ti     -7.78890985     4.35705844    -3.77741516     0.19289970    -0.06382541    -0.00046027
Ti     -3.86948686     4.32490735    -7.69904437     0.40453357     0.62392139    -0.43059656
Ti     -3.94327272     4.47508120    -3.75657630    -0.56056798    -0.63873576     1.38818595
Ti     -6.09816565     8.69858802    -2.14271037     0.77539504     0.57174602    -0.60885867
Ni     -5.92736736     2.38370488    -8.00941759     1.04715369     0.80124145    -0.61397660
Ni     -5.86168846     2.22160784    -4.02379135    -0.34764861     0.08424288    -0.35012271
Ni     -9.72147007     6.58743697    -7.77788117    -0.52547431    -0.01711083    -0.52523154
Ni     -9.73131333     6.42463023    -4.04752566    -0.53363945     0.68619930     0.38204693
Ni     -1.89344403     2.19452769    -7.87473935    -0.65791951     0.18529586    -1.53836015
Ni     -5.90387577     6.50582989    -3.90963409     0.37759952     0.62982691    -0.54325367
Ni     -2.06362444     0.02025896    -6.07777954     0.84111656    -0.76168682     1.91531624
Mo     -9.92517338     8.76577052   -10.21166979    -0.62097487     0.89577532     1.36324660
Mo     -9.76800893     8.71733839    -6.27144687     0.58735003     0.36143054    -2.34136108
O      -1.95490458     1.92700415    -2.02453077    -0.05035525    -0.60171223     0.34670324
O      -2.01665231     1.84812688    -6.01804983     0.23917032     0.09859419    -0.71565005
O      -5.91955743     6.71918543    -2.05163618     0.25289660     0.81782507     0.53639274
O      -5.93713872     6.80934388    -5.87494947     0.44778038     0.69837484     0.01209332
O      -5.87803020     2.04061118   -10.08469223     0.13310692    -0.31080890    -0.31431096
O      -5.90610325     1.86731755    -5.92784824     0.40494918     0.90535684     0.36935754
O      -9.68586040     7.04233414    -9.62570798    -0.88955236    -0.65182841    -0.19577741
O      -9.80483800     6.81755858    -5.96007718     0.54360649    -0.76079244     0.91876325
O      -3.91904964     2.34249636    -4.02264671     0.38224484     0.42873213     0.12769948
O      -3.99379438     2.49281404    -8.01850458     0.68596543    -0.97171781     0.52003281
O      -7.89266250     2.40069770    -4.09560423     0.58470409    -0.31400462     0.86129431
O      -7.77143247     2.44172609    -8.08336073    -1.09277349    -0.01506889     0.45614867
O      -3.84384882     6.38699188    -3.92356184    -0.05443056    -0.11730062    -0.31976134
O      -4.02073097     6.34786235    -7.81840835     1.62506792     0.26277646    -0.61527217
O      -7.82053955     6.38136569    -3.95824899     0.14344403    -0.48852714     0.14356129
O      -7.80784567     6.42467937    -7.76781509    -0.41019862    -0.85762677    -0.72229039
O      -3.90546566     4.47037101    -1.97546850     0.23076057    -0.03157132    -0.78333702
O      -3.80533308     4.36756101    -5.95110379     0.01654003     0.21757876     0.51562628
O      -7.95844182     4.38839266    -9.99845544     0.31487091    -0.20730459     1.09615782
O      -7.86959277     4.17378688    -6.00306145    -0.24662212     0.90466535    -0.65155887
O      -7.88911828     8.76620185    -9.88799702     0.11479442     0.34928185    -0.83204522
O      -7.87232239     8.75476772    -5.90299190    -1.29062390    -0.29721647    -0.87206349
O     -11.55472970     8.67725894    -6.15093349    -0.44319656    -0.11962964     0.68844880
O      -7.75967806     0.11282848   -10.00270434     0.23128778    -0.42377721    -0.60564356
O      -1.98006966     4.20463122    -4.00094242     0.35232530    -0.23719837    -0.17496556
O      -9.70794576     4.59404418    -3.97640906    -1.42681812    -0.09589256    -0.65114631
O      -5.86129523     4.17935533    -3.98571738     0.24674542     0.08875130    -0.39027999
O      -5.84766851     4.39686049    -7.86061593    -0.45089530    -0.26632827    -0.55208696
O      -1.77167034     0.31794643    -3.98197803    -0.90544215    -0.31197331     0.13086303
O      -5.86813316     8.48136964    -8.01646254     0.19458299     1.07821066    -0.51792821
O      -9.70731010     8.75341444    -4.05396615    -0.38989342    -0.02722939     0.18694458
O      -5.83208142     0.60338081    -8.17424994     0.09700424    -0.96019252     1.73295380
