# total energy = -630.10897254 eV

CRYSTAL
PRIMVEC
        0.00285542     0.02004370    -7.95977623
       -7.82940539     0.00763210    -3.98158109
       -3.91729101     8.74642787     0.01461334
PRIMCOORD
56 1
Li     -3.95252784     2.27473756    -1.83351272     0.85014517    -0.49778280    -0.53211327
Li     -4.03247517     2.30759727    -6.13270798     0.54524497    -0.05878910     0.70093132
Li     -7.74068777     2.48770170    -9.91311552    -0.24239915    -0.67270583    -0.05389790
Li     -7.74889147     2.30225265    -5.97524925    -0.49051179    -0.35592062     0.12605347
Li     -3.90395598     6.58453150    -1.86544407     0.44481595     0.11498378    -0.52738227
Li     -3.88502447     6.19495812    -5.79189375     0.06058551     0.55727498    -0.75924523
Li     -7.93145618     6.25234390    -9.75615653    -0.22768691     0.67259261    -0.91064622
Li     -7.77599187     6.57192034    -5.77196145    -0.27986731     0.17761764    -0.66730462
Ti     -2.10310446     2.25594676    -4.19922983     1.60062120    -0.75886655     0.37621926
Ti     -5.81236946     6.57046939    -8.06130413    -0.22286088     0.65686858     1.29659840
Ti     -7.87005150     4.45520208    -7.73607303    -0.88559770    -0.94199348    -0.75967227
Ti     -7.77781572     4.40320162    -3.81180397    -1.22177618    -0.72266262     0.86907156
Ti     -3.79962093     4.30874180    -7.87136624     0.67727641     0.75174943     2.10450369
Ti     -4.06973191     4.42049121    -3.77754751     1.63731879    -0.25107845    -0.04521886
Ti     -5.88295393     8.70693284    -2.13731482    -1.68166936     1.65496729    -1.05761326
Ni     -5.89705476     2.54983762    -7.92890215    -0.11458239    -1.29645921    -0.47942729
Ni     -5.89185046     2.13906688    -3.86589641     0.89569496    -0.12357603    -0.77873221
Ni     -9.84573115     6.60223636    -7.78678992     0.33970992     0.24810001    -0.27772856
Ni     -9.79900087     6.52781650    -4.01286592     0.85096822     1.08695616     1.03849920
Ni     -1.85789131     1.96848124    -8.03059376     0.15722283     0.35804961     0.75035918
Ni     -5.94438008     6.48088867    -3.97886858     1.07290478     0.75954598     0.38133720
Ni     -5.93982716     8.61604824    -5.95010458     0.20081935     1.02631889     0.05839876
Mo     -5.95771789     0.17545920   -10.10669342     1.78773261    -1.46495270    -0.54271930
Mo     -5.83696302     0.01587927    -6.28623181    -0.20686255    -0.52465345    -0.69025913
O      -1.96641155     1.87926836    -1.97688513     0.79212972    -0.51737483     0.01766483
O      -1.94477043     1.74684758    -6.05010646    -0.27438529     0.26531345    -0.45878509
O      -5.87962827     6.74714463    -2.00336522     0.15667623    -0.56800918    -0.11628915
O      -5.89034197     6.81047762    -5.84653155     0.08802429    -0.47852098     0.04955964
O      -5.77549308     2.12161444    -9.90111067    -0.82007594     0.32280442    -0.96714793
O      -5.82846199     1.86000357    -5.76074409    -0.51521140     0.86279239    -0.37300042
O      -9.81543345     7.02916470    -9.63358517     0.00855326     0.14956088    -0.23418888
O      -9.73080547     6.77490404    -5.90916431    -0.72656285     0.53949842    -0.69232245
O      -3.93161609     2.36241376    -4.04811980    -1.01213987     0.39337266     0.39283381
O      -3.71890494     2.41588696    -7.95189705    -0.80518776     0.36177268    -0.13252557
O      -7.75506210     2.32946807    -3.93957386    -0.89116874     0.66203131    -0.20075116
O      -7.85385527     2.45783275    -7.98835708     0.23762864     0.35306520     0.07196384
O      -3.97027888     6.36059712    -3.94255977     0.45186344    -0.57435460     0.59786914
O      -3.89203134     6.36638254    -7.86034225    -0.17132259    -0.40535952    -0.75567857
O      -7.80461304     6.37737414    -3.89430714    -0.44599548    -0.45844768    -0.24015028
O      -7.76344637     6.38990145    -7.91148854    -1.36541011    -0.49534468     0.31269343
O      -3.73214587     4.22734842    -2.03914739    -0.29915256     0.53889281     0.42528052
O      -3.83579288     4.28938412    -6.00736365    -0.16697461    -0.01353763    -1.39187346
O      -7.72693119     4.31536652    -9.97998881    -0.46716333     0.61535497    -0.35038724
O      -8.08171075     4.18312697    -6.04779633     0.74396741     0.66762312     1.74966348
O      -3.92482603     0.14460416    -9.91607764    -0.42115388    -0.35614289     0.22219164
O      -7.96384442     8.62313333    -6.26769009    -0.42317014     0.18311337     0.63685614
O     -11.66553580     8.69791973    -5.96926745    -0.09989171    -0.46682356    -0.37367417
O      -7.69476525     0.21209274    -9.97098386    -0.49324289    -0.36311936     0.11077691
O      -1.97068180     4.11420853    -4.23386971    -0.47188827     0.71366167     0.38500792
O      -9.66218644     4.71842983    -4.02105809    -1.79000566    -0.44478395     0.10943514
O      -5.88566662     4.29241235    -3.97187926    -0.07508625    -0.10527869    -0.71226457
O      -5.90994971     4.54682342    -7.91636292     1.31883713    -1.27833781    -0.12965198
O      -2.24314159     0.18666005    -4.09391284     1.11131361    -0.13705445     1.03755900
O      -5.91939932     8.37925668    -7.88531617     0.71228112     0.41524667    -0.40138755
O      -9.74164467     8.66889646    -3.99431875    -0.07632025    -0.55314270     0.32707660
O      -5.98785103     0.73053784    -8.03990810     0.40712106    -0.70565542     1.35815708
