# total energy = -630.37428465 eV

CRYSTAL
PRIMVEC
        0.00279571     0.02951795    -7.98606283
       -7.83802570     0.01298533    -3.99532603
       -3.92160916     8.71933433     0.00634407
PRIMCOORD
56 1
Li     -3.98291001     2.18463823    -1.97442505     0.39967101     0.12016102    -0.09620591
Li     -3.79400515     2.32788456    -5.99708813    -0.44741595    -0.29884417     0.11721461
Li     -7.82315578     2.42487809   -10.02805926    -0.03694433    -0.11040664    -0.29883479
Li     -7.91132855     2.27940480    -5.93975201     0.92781986     0.16928566     0.43222007
Li     -3.98260392     6.38216880    -2.02563763     0.64564385    -0.17087773     0.89543385
Li     -4.17541412     6.31599066    -5.86960598     0.73853068    -0.03046188     0.10582297
Li     -7.83147266     6.54144441    -9.85317900    -0.81227842    -0.07890815    -0.45401460
Li     -7.96835663     6.33565857    -5.89543490     0.64715880     0.33483992     0.08045630
Ti     -1.77243950     2.13973789    -3.95940778    -1.14630874     0.89573280    -1.19551206
Ti     -5.88593995     6.69770630    -8.03377578     0.61688748    -1.09340099     1.15586149
Ti     -7.89385175     4.44192843    -7.75138169     0.81388738     0.71895516     0.15445418
Ti     -7.77589915     4.41045967    -3.72476303    -0.84322530    -0.71268966    -1.02841694
Ti     -3.83564149     4.38954045    -7.73008176     1.07555333     0.17957686    -0.61239933
Ti     -3.93210938     4.33077606    -3.71404854     0.22766742    -0.46252095     0.22258961
Ti     -6.04505392     8.67487108    -2.11041649    -1.67562337     0.37049467     0.80146782
Ni     -5.81458961     2.37105987    -8.08731742     1.36010433     0.38577286     0.03066354
Ni     -5.80992407     2.29724365    -4.13254441    -1.59467192    -0.58703095     0.39644781
Ni     -9.96123720     6.50237206    -7.95368713     1.19937334     0.73144178     0.96199463
Ni     -9.73181705     6.64189048    -3.98105956    -0.26503242    -1.68056675    -0.36782083
Ni     -1.92560148     2.07062902    -7.92941761     0.10431478     0.31774910    -0.39108901
Ni     -5.89873885     6.69039399    -3.90368800    -0.27503336    -1.27865389    -1.02639060
Ni     -5.93105560     8.64368105    -5.88661376    -0.80366158     1.67314450    -0.76112864
Mo    -10.08145592     8.69008880   -10.26569035     1.22311549    -0.25222215     1.01441086
Mo     -9.82030665     8.73291376    -6.38151579     2.76235813    -0.42003160    -0.29574594
O      -1.93884762     1.95290166    -1.97057558    -0.04127403    -1.12341415    -0.09705954
O      -1.90777116     1.85550465    -5.92842702    -0.12269171    -0.62162610    -0.64126711
O      -5.91151650     6.66602744    -2.01122380     0.28776771     0.91702516     0.45903854
O      -5.98052509     6.83563008    -5.93418200    -0.04334950    -0.30838801     0.71600652
O      -5.84660857     1.90278706   -10.13345045    -0.69492097    -0.40875775    -0.46975464
O      -5.80288604     2.02164605    -5.99066723    -0.48665160     0.00600964     0.05943128
O      -9.89506579     6.81452560    -9.80993349     0.14260029     0.76821703     0.18824618
O      -9.74991135     6.81912211    -6.02542137    -1.24231449     0.29181393    -0.39500045
O      -3.99103945     2.41692948    -4.04487256     1.69102006    -0.60873712     0.39976757
O      -3.81289760     2.46743740    -8.07481700    -0.17608389     0.06181471     0.92440079
O      -7.89983033     2.43208734    -4.03379703     0.51216193    -0.22869955     0.33221214
O      -7.72338335     2.48624524    -8.14581586    -0.70026257    -0.68833052     1.37184201
O      -3.96412683     6.26878662    -3.84321827    -0.38097799     1.08786174    -1.15186331
O      -3.90117696     6.39512548    -7.89793968    -1.04806620     0.12052678    -0.49236174
O      -7.78489042     6.29047828    -3.93975603     0.16937863     1.73358098     0.14529357
O      -7.96864030     6.41844100    -7.91954473     0.98725479    -0.95151262    -0.46941063
O      -3.78251764     4.31588866    -1.97002093    -0.31534431     0.29198901    -0.02538009
O      -3.83060147     4.40324026    -5.95053381     0.27518070    -0.09729704    -0.34214891
O      -7.98579893     4.32749788    -9.98374320     0.19617707     0.43884562     1.06406543
O      -7.80920089     4.37456670    -5.99144259     0.33818379    -0.28243978    -1.00240458
O      -7.89169120     8.60298919    -2.09991842     1.27114527     0.23021808    -0.18283269
O      -4.07271150     0.06540014    -5.90811744    -0.09409633    -0.25656714    -0.27637475
O      -7.66718964     0.07770494    -6.12447973    -0.83291236    -0.13329911     0.07532508
O      -3.97734632     8.60431977    -6.00743151     0.69250940     0.56302405     0.11963230
O      -1.94298653     4.10678451    -3.89320160     0.38970319    -0.71550480    -0.51607451
O      -9.69402720     4.78318428    -4.23243801    -0.64854288    -0.09798713     1.17752446
O      -5.82470712     4.22186776    -3.93922460    -0.97146218    -0.04941589    -0.34353664
O      -5.72923699     4.41603531    -8.10974016    -1.72327397    -0.08362941     0.46302822
O      -1.80433187     0.21104568    -3.95304892    -0.31087671    -0.09226847     0.15377906
O      -5.84220609     8.46588367    -7.94800852    -0.25471345     0.74345153    -0.98565858
O      -9.88781560     8.51937661    -4.06458969    -0.15937347     0.75234373     0.21196191
O      -5.56887235     0.53783156    -8.14254825    -1.61423637    -0.19737956    -0.41443272
