# total energy = -630.88038296 eV

CRYSTAL
PRIMVEC
        0.00285542     0.02004370    -7.95977623
       -7.82940539     0.00763210    -3.98158109
       -3.91729101     8.74642787     0.01461334
PRIMCOORD
56 1
Li     -3.82993164     2.21167774    -1.94941559    -0.04149072    -0.00131289    -0.06013654
Li     -3.91031155     2.03148241    -6.10371315    -0.36438899     0.00502498     0.66692236
Li     -7.86392894     2.36916820    -9.93219131     0.28426672     0.19579235    -0.51891079
Li     -7.85163964     2.16385158    -5.90232569     0.15493162     0.38349492     0.03095937
Li     -3.90863032     6.31715181    -2.10806364     0.04905876     0.11636268     0.75480010
Li     -3.93740239     6.58905793    -5.97391730     0.22278507    -0.48325010     0.47406574
Li     -7.78944173     6.30615006    -9.95597042    -0.07717929     0.60150725     0.83607795
Li     -7.85639232     6.79652100    -5.77056016    -0.07444357    -0.11839201    -0.28707608
Ti     -1.80118351     1.95020527    -4.07943291    -0.97574782     1.21805167     0.45971114
Ti     -5.83319489     6.57035958    -7.90561504    -0.21327743    -0.28997167    -1.20919361
Ti     -8.04136353     4.44069838    -7.75621873     1.20608861     0.48007977    -0.40381422
Ti     -7.83213931     4.44393268    -3.75680973    -0.29628579    -0.96323572    -0.35827167
Ti     -3.75148036     4.33536742    -7.71110826    -1.27699711     0.18688411    -0.31706305
Ti     -3.91949512     4.23487219    -3.77170612     0.30163374    -0.01642631    -0.17142668
Ti     -6.02636274     8.67377552    -1.99422516    -0.23624262     0.07102669     0.48894064
Ni     -5.79260746     2.45728840    -7.91121728    -1.35570294     0.20734651    -0.66530750
Ni     -5.93217843     2.29091168    -4.02288514     0.74113633    -0.38242446    -0.03567802
Ni     -9.85992309     6.76457954    -7.91995024     0.93178891    -0.59405351     1.97831937
Ni     -9.85235065     6.50203924    -3.97727496     0.45887412     0.64294463    -0.53539518
Ni     -1.94008890     1.97716594    -7.97162480     0.32243067     0.14359665    -0.18142593
Ni     -5.80825470     6.53398332    -4.03221061    -0.01226420     0.03049025     0.98921267
Ni     -5.86798294     8.68903700    -5.97289581    -1.05423728     1.93842317    -0.43655930
Mo     -6.01234947     0.14316998   -10.12815395     0.96834382     0.53229936    -2.05391762
Mo     -9.83067007     8.74391614    -6.29440744     0.67818195    -0.35005035     0.10380535
O      -1.87895064     1.91287182    -2.02116285    -0.34174269    -0.67888667     0.19018861
O      -2.08002792     1.82459707    -6.06899538     1.49694714    -0.58944788     0.05643392
O      -5.76796790     6.68893101    -1.99705802    -0.93794482     0.86108238    -0.00511095
O      -5.91284447     6.88836874    -5.97183141     0.60579546    -0.56965303     0.25195875
O      -5.81493167     2.06871994   -10.09033143     0.02891867    -0.31041037     0.13864063
O      -5.92429321     1.89842929    -5.86737604     0.52378633     1.06632651     0.36938605
O      -9.80287689     7.07340751    -9.65166550     0.01840425    -0.61947686    -1.09572700
O      -9.82080820     6.83630798    -5.99564838     0.32258519    -0.18241977    -0.22527356
O      -3.87057409     2.33608398    -4.13223995    -1.14492579     0.10266753     1.04512141
O      -3.92877498     2.44749381    -7.98396561     0.69861242     0.08089562     0.25851359
O      -7.80997351     2.42035514    -3.94905155    -0.46428279     0.33947390     0.01925877
O      -7.78500175     2.45596596    -8.00558509     0.47752155    -0.93077939    -0.16788881
O      -3.81165217     6.31162468    -3.97153354    -0.59057433     0.12421207    -0.53170148
O      -3.95392535     6.40245482    -8.03317928     0.25375443    -0.13951727     1.13316201
O      -7.90657696     6.36515725    -3.82011516     0.26072146     0.30508332    -1.27928504
O      -7.82646574     6.40262580    -7.86578176    -0.36260431    -0.07916341    -0.51513747
O      -3.84256506     4.40537293    -1.99615364    -0.33388682    -0.38912627    -0.97066835
O      -3.82919047     4.49720573    -5.96410488    -0.01343808     0.23325294     0.07519819
O      -7.92672541     4.37024034    -9.94299641    -0.05543838    -0.05131903    -0.33858393
O      -8.05491946     4.23086175    -6.06507896     0.60005282     0.20158554     2.05277765
O      -3.87710383     0.08408717    -9.80183996    -1.33839373     0.05951177    -0.99944367
O      -4.03838598     0.06123629    -6.06440326     0.19758018    -0.78016399     0.36635777
O      -7.65408931     0.05775512    -5.97817448    -0.59778038    -0.30884587    -0.13999020
O      -7.77623058     0.21856214    -9.98785090    -0.10207398    -0.50427938     0.00500800
O      -1.98561186     3.88343495    -4.02779077    -0.69738094     0.62831440    -0.41224445
O      -9.80841918     4.66198171    -4.12563594     1.23005877    -0.14433908     0.47545398
O      -5.89478168     4.53527888    -4.04424786     0.08555629     0.09924383    -0.21450244
O      -5.88738518     4.43217581    -7.92833292     0.26188565     0.42818931     0.05992390
O      -1.83801948     0.05991160    -3.91025137    -0.07345463    -0.48571826    -1.14982623
O      -5.79360251     8.63023728    -8.08749166     0.24168298    -1.84839912     1.37216299
O      -9.74445116     8.44293245    -3.95682965    -0.22160302    -0.14471950     1.12066106
O      -5.78919841     0.54851784    -8.06489413    -0.49812054     0.95599467    -0.59020294
