# total energy = -630.58721948 eV

CRYSTAL
PRIMVEC
        0.00279571     0.02951795    -7.98606283
       -7.83802570     0.01298533    -3.99532603
       -3.92160916     8.71933433     0.00634407
PRIMCOORD
56 1
Li     -4.07299720     2.53243283    -1.83218489     0.93050303    -0.81072761    -0.15225801
Li     -3.90940093     2.23638206    -5.98444787     0.07691527     0.05694497     0.24938121
Li     -7.69262136     2.31294875    -9.98455704    -0.20169518    -0.34882468     0.38060014
Li     -7.74822783     2.20874565    -5.81354312    -0.36478043     0.01118799    -0.65337439
Li     -3.92975425     6.53420505    -2.07439037     0.44388163     0.01846331     0.56419074
Li     -3.97326946     6.59738050    -5.80544530     0.03044654     0.20961658    -0.41085459
Li     -7.68466020     6.78827343    -9.85238533    -1.26232356    -0.11397809    -1.07517237
Li     -7.99776278     6.32774232    -6.06425710     1.40049517     0.06810261     0.52762100
Ti     -2.09069519     2.14239779    -3.97295755     1.49917046    -0.49558311     0.10410159
Ti     -5.92248744     6.50690184    -8.06730853     0.87637217    -0.13472767     1.26597100
Ti     -7.87079561     4.25042255    -7.81431237     0.25137035    -0.56902446     0.14089526
Ti     -7.85851913     4.41144649    -3.75908493    -1.02268824    -0.34133795     0.60638149
Ti     -3.91686741     4.42339968    -7.68871479     0.59003592    -0.09164089    -1.26644567
Ti     -4.13546127     4.47464695    -3.79019394     0.92621478    -0.19353267     0.27021650
Ti     -1.86864218     0.10165486    -1.80316683     0.10372305     1.40846110    -1.69084651
Ni     -5.76829655     2.29950574    -7.82932555    -0.81247404    -1.07465577    -1.12278632
Ni     -5.89721086     2.28335016    -4.08047728     0.64729365    -0.23288003     0.83750510
Ni     -9.66797676     6.35171104    -8.02455794    -2.13547150    -0.59612406    -0.32891785
Ni     -9.78653693     6.47998543    -4.05354999    -0.31026658     0.46880470     0.45811492
Ni     -1.94358883     2.22960370    -7.89383684     0.25013409     0.31799318     0.07678955
Ni     -5.99238903     6.74486629    -3.98316476     0.32503564     0.01290576    -0.74696553
Ni     -6.05903247     8.69342772    -6.04012612     1.25831163     1.22389011     0.94934865
Mo     -9.82381140     8.73297381   -10.29399828     1.34076312     1.20157437    -0.58899160
Mo     -9.73687449     8.72282756    -6.41856581    -1.43512930     0.96642499     1.16898552
O      -1.91060438     2.00239365    -1.92274913    -0.31447246     0.00218463     0.18330862
O      -1.99387860     1.83061702    -5.93260559    -0.15730393     0.32225120    -1.22407454
O      -5.81312539     6.90431537    -2.01651348    -0.68497217    -0.71804152    -0.43229837
O      -5.96604485     6.89525414    -6.01323877    -0.08855045    -0.37610253     0.34572757
O      -5.71450300     1.89945207    -9.75953354    -1.71495068     0.02113167     0.40799848
O      -5.81965144     1.94543980    -6.01305322    -0.38941442     0.10284852    -0.10359005
O      -9.81389507     6.84286156   -10.07858447     0.15115089    -1.30637330    -0.57039974
O      -9.69523293     6.77157943    -5.93331104    -1.71671657     0.41222967     0.02810002
O      -3.90154448     2.42806194    -3.92034555    -1.24435877     0.21722311    -0.71111387
O      -3.89541421     2.39271304    -7.87715108    -0.04910944     1.12100491    -0.12993704
O      -7.76079686     2.37304785    -3.95128195    -1.17743306     0.72597759    -0.09881750
O      -7.86141914     2.33351883    -7.92414008     0.75865097     0.91260601    -0.12483326
O      -3.93292306     6.35534324    -3.91713615    -0.06276502    -0.01201824    -0.65637614
O      -3.96757836     6.40748998    -8.01837678     0.80431146    -0.29555513     0.13318875
O      -7.89152092     6.35988015    -4.04626170     0.42647060    -0.06886570     0.44735668
O      -7.81139815     6.25611616    -8.05838623     0.13888660     0.98651370    -0.10630875
O      -3.98035462     4.30351458    -2.05429866     0.06219496     0.89641915     0.47505849
O      -4.05186854     4.40614762    -5.97474381     0.12226856    -0.13601304     1.47898705
O      -7.84498895     4.38145810    -9.98084279     0.35328498     0.05221680    -0.02970543
O      -7.68680877     4.48886173    -6.08223748    -0.15011311    -0.65324524     0.52614331
O      -4.04967180     0.04680947    -9.99126381     1.08471122    -0.67600773     0.02092226
O      -4.08073777     0.04925571    -6.19931944     0.66236308     0.01507560     0.17194698
O      -7.77352827     0.13390075    -6.08038665     0.57891302    -0.61960110     0.12924472
O      -7.64036915     0.11933583    -9.99308247    -1.11246403    -0.23571735     0.03330928
O      -1.93812581     4.32032684    -3.96040313    -0.59437575     0.43185783    -0.46275790
O      -1.98904009     4.39157479    -7.91870791     0.26291550    -0.12951245    -0.61662538
O      -5.98770530     4.20261742    -3.99949011     0.93006695    -0.53338531    -0.40353786
O      -5.82841870     4.62288661    -8.10697098    -0.27670157    -0.31782366     0.00944982
O      -2.02322740     0.30724739    -4.00240002    -0.35388483    -0.87788541     0.27813618
O      -5.97367370     8.56891636    -8.00726463     0.24281890    -0.32470405     0.93131800
O      -5.87285706     0.34767087    -4.12032670     0.11255043    -0.16567840     0.07459434
O      -9.83419784     8.14409210    -8.12575940     0.28753238     0.45613957     0.23158783
