# total energy = -629.96402972 eV

CRYSTAL
PRIMVEC
        0.00285542     0.02004370    -7.95977623
       -7.82940539     0.00763210    -3.98158109
       -3.91729101     8.74642787     0.01461334
PRIMCOORD
56 1
Li     -3.87329272     2.16697581    -1.79144420    -0.45098159     0.23855423    -0.82150336
Li     -3.91172476     2.04822367    -6.05173065    -0.12668192     0.46095282     0.50645817
Li     -7.64492031     2.44254455   -10.09288380    -0.76608867    -0.14411285     0.72318757
Li     -7.75902722     2.42533221    -5.85403656    -0.25264055    -0.08382113    -0.74558968
Li     -3.86031904     6.60472324    -2.01086255    -0.40433047    -0.34896563     0.23754205
Li     -4.09122206     6.36896785    -5.87331312     0.91746116     0.17537704     0.07140646
Li     -7.96650880     6.47864424    -9.88766124     0.45972281    -0.02751035    -0.25594514
Li     -7.70620890     6.37245042    -5.76663286    -0.43030852    -0.10725009    -0.25549116
Ti     -1.92270909     2.32272402    -4.02577808    -0.26184098     0.40573024     0.25084761
Ti     -5.86086020     6.80821418    -7.96330018    -0.64422118    -0.30702626     0.04588401
Ti     -7.71835159     4.42996958    -7.77461140    -3.02056157    -0.86261198     1.40406713
Ti     -8.02628813     4.32581460    -3.76173953     1.30360750     1.87838179     1.12736074
Ti     -3.99510858     4.42224397    -7.73964957     0.04053548    -0.74677855    -0.70776260
Ti     -3.97220185     4.41771005    -3.71213036    -1.08814782    -1.26402964     0.57179720
Ti     -5.88671999     8.68206556    -2.11583510     0.24584523     1.11915919    -1.79936979
Ni     -5.81273099     2.29606303    -8.06422197    -1.75921736    -0.38537570     0.80229665
Ni     -5.84125968     2.28696451    -4.04993432    -0.38620317     0.56462262    -0.98356115
Ni     -9.84928196     6.51234109    -7.95851937     0.01737684    -0.33688482     0.52019296
Ni     -9.83764676     6.36983605    -3.86427317     0.39178250     0.79486392    -0.22440068
Ni     -2.05748988     1.93481267    -7.96566847     0.76801741     1.64597608     0.09393612
Ni     -5.90176555     6.47390793    -3.96204882    -0.66635680     0.10403100     0.36432829
Ni     -5.77142456     8.75221424    -5.77682547     0.03915097     0.14202435    -1.17486467
Mo     -5.89802030     0.10691499   -10.27770789     1.79624686    -1.35272346    -0.54382078
Mo     -9.74436767     8.68370944    -6.22391697    -1.49024056     0.14166309    -1.22994474
O      -2.10001595     1.90551852    -2.05188719     1.10486338    -0.43512622     1.13948776
O      -1.88914527     1.83983678    -5.88242379    -0.23485888     0.03354698    -1.57996690
O      -5.99479409     6.76277113    -1.98939193     0.60753814    -0.07908986     0.55484417
O      -5.83827339     6.88652310    -5.84824784    -0.56060516     0.25613424     0.22697354
O      -5.83563894     2.00323627   -10.00016515     0.77195600     1.34287524     0.29999581
O      -5.94366984     2.00368649    -6.09077755     0.27405887    -0.46461936     0.58848935
O      -9.82216453     6.98269051    -9.89691547    -0.30463749    -1.29051818     0.55243347
O      -9.80002668     6.81212170    -5.94044213     0.40369816     0.10498752    -0.18629367
O      -3.87859128     2.47703572    -4.09286277    -0.42119712    -0.42505900     0.17569525
O      -3.95529873     2.46302940    -7.90884726     0.49595055    -0.83374465    -0.30094283
O      -7.95137118     2.50593570    -4.06376895     0.35841313    -2.41410599     0.80844805
O      -7.81458693     2.46465885    -8.06388866     0.27738869    -0.17894635     0.43573271
O      -4.00371719     6.28670410    -3.93691466     0.77449240     1.46393851    -0.46773843
O      -4.00516117     6.40853442    -7.94513650     0.17890975     0.13248273     0.14844734
O      -7.86426731     6.35227251    -3.85334984    -0.38010139    -0.40125066    -0.89448782
O      -7.79455044     6.30695203    -7.99271338    -0.43510605     1.60832044     0.88306388
O      -3.77301154     4.45772248    -1.96649847    -0.44973992    -0.16151582     0.50899140
O      -3.89355819     4.45107110    -6.01951940     0.03107060     0.29268491     1.09064319
O      -7.75239825     4.46392033    -9.90625393    -0.53733224    -0.64056617    -1.29325509
O      -7.64965217     4.37422420    -5.94100382    -0.69062565     0.64830982    -0.68908356
O      -7.90499441     8.68235753    -2.10694949     0.32206882     0.42660553     0.47680202
O      -4.12249574     0.10439582    -5.91441374     0.71998966    -0.67858839    -0.48595397
O      -3.95489306     8.56911455    -1.98955176     0.90059777     0.60989384     0.17500756
O      -7.61790609     0.05872071   -10.20398171    -2.39821328    -0.00500798     0.66358622
O      -1.98757942     4.27082962    -3.89170371     0.85852437    -0.28694787    -0.78721716
O      -2.04509180     4.48363144    -7.88106259     0.16033215     0.06327777    -0.53327910
O      -5.92152925     4.20695159    -3.95606942     0.70956747    -0.09550647    -0.01695055
O      -5.95069083     4.37615885    -7.96496340     3.65492087    -0.14957747    -0.64096859
O      -1.83243133     0.31599075    -3.99319333    -0.21849479    -0.77650757     0.82895105
O      -5.91610389     8.61200259    -7.81050741    -0.20669584    -0.11654710    -0.54671072
O      -5.81864968     0.35635676    -4.12865548    -0.31015090     0.51394868    -0.44451991
O      -5.92795070     0.35113698    -8.10681767     0.38364240     0.97213008     1.44264161
