# total energy = -630.71397482 eV

CRYSTAL
PRIMVEC
        0.00279571     0.02951795    -7.98606283
       -7.83802570     0.01298533    -3.99532603
       -3.92160916     8.71933433     0.00634407
PRIMCOORD
56 1
Li     -3.99558971     2.30058629    -1.86666637     0.10120637     0.12557553    -0.20934431
Li     -3.90478374     2.00807499    -5.95154568    -0.09126395    -0.00047393     0.02861756
Li     -8.03004718     2.58501333    -9.92019523     0.50691538    -1.29013887    -0.17668811
Li     -7.82983063     2.20739290    -5.85159930     0.23264618     0.08901866    -0.04886706
Li     -3.74197601     6.41379608    -2.03789519    -1.01762763    -0.11038635     0.51943809
Li     -3.85963177     6.48369454    -6.04967833    -0.09322638     0.26010438     0.31158183
Li     -7.86776001     6.53483168    -9.96931962    -0.68087998    -0.03414562     0.11419092
Li     -7.79359776     6.34163545    -5.86881592     0.05233731     0.19190232    -0.42436240
Ti     -1.99527578     2.13553736    -3.90899179     0.21065600    -1.11264135    -0.64258692
Ti     -5.96279142     6.50074450    -7.97756848     0.85978673     0.60220833    -0.03622707
Ti     -7.87851077     4.27379122    -7.79564520    -0.13250027     1.75462993     1.19323571
Ti     -7.82557756     4.35575849    -3.74782182    -0.49638358    -0.00674303     0.64124604
Ti     -3.79131655     4.33015241    -7.66202679    -0.53877111     1.51622943    -2.03730308
Ti     -3.98801608     4.35632054    -3.78179944     0.72024088     0.10706219     1.92583134
Ti     -2.21356664     0.06596619    -1.97509398    -0.35950595    -0.88898014     0.19089087
Ni     -5.87343589     2.44058791    -7.89212144     0.71050268    -1.28591707    -1.07889186
Ni     -5.91500026     2.21675284    -3.97983883     0.21753383    -0.13512857    -0.44535652
Ni     -9.89504045     6.60698514    -7.92436937     1.14359008     0.36368614    -0.94191993
Ni     -9.75057720     6.46218058    -4.14612831    -0.78901961     1.46027744     1.46941865
Ni     -2.00967901     2.21026282    -7.88625214     1.11613359    -0.61012598    -0.57605059
Ni     -5.86873428     6.46980631    -3.97752979     0.32199620     0.43797411     0.03286233
Ni     -5.85549555     8.66395297    -6.02827881    -0.02936043     0.93903843    -0.08276391
Mo     -6.04498877     0.15500232   -10.36544353     0.73535898    -0.66528768    -0.19148226
Mo     -9.71389187     8.69469235    -6.36967681    -0.14178877     0.57936207    -0.73179408
O      -1.99009726     2.04714093    -1.99063646     0.37048707    -0.91504143     0.66969864
O      -1.96561313     1.77393508    -6.06282922     0.01374943     0.57457837     0.79375051
O      -5.99820166     6.82034923    -1.87069637     0.60409802    -0.03322602    -1.44951720
O      -5.79234962     6.83847702    -5.99604138    -0.57740945    -0.26023446     0.08898569
O      -5.93038565     2.03227300   -10.08134368     0.31028239     0.44462289     0.26352296
O      -5.86397351     2.03110630    -5.92053184     1.02701617    -0.19288574     0.66855813
O      -9.83745004     6.92903793    -9.98122093     0.53685544     0.23941254     0.97017147
O      -9.77264856     6.78826206    -6.01274580     0.48868256    -0.02349965    -0.98806278
O      -3.88491341     2.35395980    -3.90417889    -0.98760120    -0.13199868    -0.66700037
O      -3.86746011     2.45706732    -7.96717805    -0.82594434    -0.08427713     0.55084835
O      -7.84435971     2.39665422    -3.89230673    -0.53786504     0.33873573    -0.47665783
O      -7.74403560     2.40419848    -7.98891119    -0.83039284    -0.59786799     0.15394929
O      -3.88885351     6.29167602    -3.98450149    -0.29398910     0.62458394     0.28386930
O      -3.94116518     6.34114947    -8.07592725    -0.47189734    -0.32750253     0.55652012
O      -7.80865417     6.32163132    -3.97796163     0.16486618    -0.19574736    -0.03339691
O      -7.96302952     6.40528867    -7.93714970     0.77827058    -0.88015846    -0.10851472
O      -3.72335019     4.47103879    -1.96059424    -0.94060349    -0.68385829    -2.52801179
O      -3.79590675     4.59623703    -5.95992410    -0.01829416    -0.81411302     1.49180361
O      -7.90360422     4.34347795    -9.91159903     0.13439081     1.21276954    -1.43993441
O      -7.79897240     4.36194467    -6.01636739    -0.26838160     0.01032790    -0.06714498
O      -4.01814745     0.10018187    -2.11596284     0.52288738     0.11915261     0.11556714
O      -3.88281799     0.04102326    -6.14724840    -1.43308564    -0.20124478     0.46704614
O      -7.52854638     0.20323685    -6.02183958    -0.24896181    -0.92060365    -0.37793432
O      -7.74182987     0.04881277   -10.09714918    -1.55843863     0.08289805     0.04316484
O      -1.94049083     3.97708645    -4.03759114    -0.47266895     0.80020753    -0.25331984
O      -9.79429994     4.63606338    -4.08841010     1.26518477    -0.54528959     0.34870657
O      -5.88510205     4.42043734    -4.00734686    -0.06272878     0.22118965     0.08315803
O      -5.90140588     4.42916506    -8.01522694     0.75715833    -0.00282562     0.18280205
O      -1.77336658     0.12373973    -3.87091968    -0.45533200     0.39262776    -0.08068106
O      -5.86652850     8.46213922    -8.02163606     0.02799819    -0.07782331     0.04492035
O      -9.80662466     8.39643218    -4.15562406     0.52295831    -0.17569377     0.91504121
O      -5.80081881     0.47433256    -8.18746726    -0.16523668     0.77355820     1.04423138
