# total energy = -631.50512699 eV

CRYSTAL
PRIMVEC
        0.00285542     0.02004370    -7.95977623
       -7.82940539     0.00763210    -3.98158109
       -3.91729101     8.74642787     0.01461334
PRIMCOORD
56 1
Li     -3.99334557     2.36408642    -1.93760830     0.31181871     0.06773467     0.08805890
Li     -4.08139039     2.18175537    -5.84354417     0.43123648     0.15227494    -0.31154249
Li     -7.91637035     2.33329572    -9.86943413     0.46130857     0.04577625    -0.58399471
Li     -7.81022364     1.93859597    -5.80590127    -0.31704202     0.27261555    -0.24918851
Li     -3.96379198     6.54629414    -1.78414885     0.54618087    -0.16943008    -1.23009598
Li     -3.76969245     6.43866413    -5.89805212    -0.48959310     0.23126076     0.09706742
Li     -7.89372767     6.33651306    -9.88624445     0.11083562    -0.12850282    -0.39010726
Li     -7.88804351     6.70471256    -5.88363591     0.39372849    -0.41873869     0.31579758
Ti     -1.96289619     2.25021440    -4.05894076    -1.14137255     0.27986147     0.49203645
Ti     -5.89322193     6.73831755    -7.92612468     0.54421004     0.22359224     0.12666701
Ti     -7.83348225     4.38476271    -7.60394770    -0.69248724    -0.11407311    -0.55683651
Ti     -7.96613498     4.25418710    -3.81367790     0.18284790     1.52474442     0.74494226
Ti     -3.93096656     4.33438311    -7.67108435     0.82307838     1.42598291    -0.91293616
Ti     -4.03356104     4.48100254    -3.75418351     0.05773885    -0.83473817     0.25046270
Ti     -5.90856172     8.72373991    -2.17610658    -0.37943458    -0.59997498     0.75231389
Ni     -5.89736846     2.41108694    -8.07211001    -0.82493439    -0.39816020     0.82668743
Ni     -5.89214730     2.18092666    -3.93706035    -0.57006489     0.33186802    -0.36193702
Ni     -9.76124211     6.56838637    -7.88702602    -1.21566554     0.28092975     0.80599673
Ni     -9.74625238     6.57080313    -3.95862796    -0.25579577    -0.77748305    -0.82865956
Ni     -1.95592323     2.00365062    -7.94498680    -0.52918992     0.37611846     0.29998857
Ni     -5.87605415     6.48274057    -3.96554192    -0.21132510    -0.24107960    -0.11589275
Ni     -5.79322080     8.70796403    -5.87438834     0.08656356    -0.24581176    -0.78184409
Mo     -5.86825965     0.06184371   -10.21514123    -0.64175351    -0.33224764    -0.62760571
Mo     -5.81581730     0.03500551    -6.40692015    -0.31078059    -1.31001423     0.75895782
O      -2.03289072     1.86008795    -1.95913562     0.43843550     0.16615795     0.38652695
O      -1.99476511     1.85914851    -5.96766302     0.08533449    -0.48214282    -0.19399959
O      -5.90993370     6.78514124    -1.94055202    -0.11804079     0.17099274    -0.35839374
O      -5.76752981     6.85606773    -5.88717244    -0.60504018     0.23043238     0.26589202
O      -5.91340608     2.02959051   -10.00442313     0.39835305     0.35850756    -0.59639782
O      -5.97358866     1.96414273    -5.84902222     1.17670585    -0.67777512    -0.25158489
O      -9.74793984     6.94743959    -9.74924560    -0.11609786    -0.57061399     0.03808165
O      -9.78117223     6.80473163    -5.95227463     0.03591017     1.22412093    -0.81939599
O      -4.00589609     2.40807000    -3.91192260     0.88950877    -0.06059311    -0.39963510
O      -3.96816651     2.49260483    -7.85799689     0.47064692    -1.51412925    -0.75515172
O      -7.86971161     2.36857050    -3.93026107     0.08102080    -1.15320669    -0.28669823
O      -7.90080544     2.43369206    -7.94954315     0.71344561    -0.32998105     0.12771956
O      -3.86285196     6.37850903    -3.91781986     0.24263721     0.53621504    -0.32830138
O      -4.02002288     6.30591655    -7.97827413    -0.04666022     0.59610469     1.12089767
O      -7.80326137     6.27847317    -3.95664204     0.16022007     0.61155223     0.10009658
O      -7.91139447     6.31875187    -7.96737650     1.26207225     0.29098544     0.68932171
O      -3.96659156     4.55623697    -2.01167228    -0.10857730    -0.89128815     0.57850789
O      -3.90595202     4.50390031    -5.93670030     0.40622243    -0.16866940     0.44565664
O      -7.96441226     4.35524330    -9.98969218     0.00126221     0.03170178    -0.01992954
O      -7.85384416     4.46595233    -5.88271933     0.00144061    -0.08685273    -0.23905978
O      -7.92336727     8.75575708    -9.90613374     0.69813751     0.43766383    -0.21807249
O      -7.89874830     8.70213734    -6.16144598    -0.93782501     0.31320681     0.06815869
O     -11.59817472     8.75737769    -6.13323054    -0.61604426    -0.39630159     0.35446515
O      -7.67987398     0.03296293   -10.00885179     0.15008177     0.06197819    -0.05196514
O      -1.97686331     4.09437701    -3.94010747    -0.30405625     0.18585824    -0.14061061
O      -9.83124097     4.64009358    -4.20296299    -0.48480724     0.34386142     1.14488735
O      -5.89896937     4.34871185    -4.06617613    -0.68709972     0.07050594     0.30573487
O      -5.95706825     4.32073387    -7.94174550     1.02312238     0.09129862    -0.11553820
O      -1.94895550     0.16267807    -3.98857292    -0.26013195     0.17273242    -0.35415898
O      -5.64855644     8.53043348    -7.91738570    -0.82133722    -0.04442113    -0.40621709
O      -9.72061284     8.55241686    -4.07134783     0.02786134    -0.18485127     0.22850414
O      -5.95179419     0.57284231    -8.15690136     0.59257191     0.38143214     0.93909568
