# total energy = -630.30025444 eV

CRYSTAL
PRIMVEC
        0.00279571     0.02951795    -7.98606283
       -7.83802570     0.01298533    -3.99532603
       -3.92160916     8.71933433     0.00634407
PRIMCOORD
56 1
Li     -3.95430970     2.18308209    -1.88546473     0.14832936     0.12902212    -0.44037743
Li     -3.86315564     2.19669996    -6.02940480    -0.31412420    -0.12693287     0.40618192
Li     -7.63529875     2.46169754    -9.92190592    -0.37427120    -0.79670733    -0.12667497
Li     -7.84504641     2.06570955    -5.84438099    -0.31643517     0.31677782    -0.16496695
Li     -3.84511634     6.75366832    -1.94686914    -0.16884361    -0.54458618    -0.61059180
Li     -3.99404289     6.49531845    -5.83201606     0.58338182     0.03867233     0.15484676
Li     -7.91858452     6.09976734    -9.86325026     0.59936785     1.01890666     0.04213046
Li     -7.79460911     6.99676232    -5.90131984    -0.37786950    -0.57031603     0.26871326
Ti     -1.90759732     2.38644708    -4.12050880    -1.29000857     0.28814377     1.30355693
Ti     -5.59735798     6.80868485    -7.86223276    -2.18513689     0.79988259    -0.73258053
Ti     -7.82917983     4.50827386    -7.58289777     0.54871540     0.22783617     1.02354425
Ti     -7.86778486     4.25974563    -3.74646778    -1.49975991    -0.56744968    -0.81755030
Ti     -3.98742742     4.38758630    -7.73197733     1.33547948    -0.58087522    -0.62664089
Ti     -4.13600696     4.42553660    -3.78605231     0.72697069     0.31433036     1.12130940
Ti     -2.09271970     0.01347283    -2.34480119    -0.88774524     0.47897639    -0.14708030
Ni     -5.84463947     2.27213128    -7.96615877    -1.56719574    -0.81940425     0.63363464
Ni     -5.88388467     2.20048959    -4.07949860    -0.19691815     0.05538794     0.15777012
Ni     -9.72805193     6.38440671    -8.01238996    -1.08312196    -0.87500853     0.62371366
Ni     -9.76674670     6.45416070    -3.89565829     0.65888587     0.09259903    -1.50287050
Ni     -2.03326264     2.17115309    -7.98466616     0.86417366     0.16264884    -0.26900096
Ni     -5.98671576     6.63472059    -3.91671660     0.46825474    -0.60526899    -0.19422958
Ni     -1.95649883     0.08887872    -5.97088318     0.23759562    -0.05614672    -0.16347509
Mo     -9.87140342     8.64581838   -10.37182555     0.14996000     0.06421347    -0.32424203
Mo     -5.90947209     0.03901715    -6.37129051     0.54376212    -0.60756984    -0.16395792
O      -2.03484413     1.88708156    -2.02517509     0.74177545     0.20800974    -0.04232427
O      -1.92542184     1.93250953    -5.91906698    -0.14122633     0.07159632    -1.61965282
O      -5.95750778     6.89432176    -1.95130205     0.64479361    -0.98818997     0.38145833
O      -5.88954919     6.93929565    -5.86267660     0.21117942     0.12717201    -0.70079041
O      -5.82358855     1.68001826    -9.81333895     0.09924051     2.35484354     0.51679288
O      -5.86077858     1.93257422    -6.02844437    -1.07898879     1.17222974    -0.88902566
O      -9.73269051     6.79483172   -10.00178994    -0.29498260    -1.19560132    -0.42553328
O      -9.79600533     6.79116616    -5.83907546     0.41266473     0.92983212     0.12188412
O      -3.88682113     2.47920723    -4.06842555    -0.05948705    -0.17107042    -0.05050552
O      -4.05230907     2.42524448    -7.94182752     0.93627332     0.37664751     0.12043380
O      -7.89208116     2.20688153    -3.92878945     0.48803034     0.97928296    -0.00698954
O      -7.87314740     2.56619994    -8.01871832     1.44715062    -0.92703358     0.46648737
O      -3.99473654     6.39117226    -4.01638307    -0.01804221    -0.73073665     0.76702674
O      -3.74840643     6.48373699    -8.00959943    -1.13279482    -0.24890483     0.98162306
O      -7.90963834     6.15711974    -3.95117331     0.55980311     1.29248672     0.11465035
O      -7.79584381     6.40361626    -7.78760832    -0.43275185    -0.39844317    -0.52868630
O      -3.90474216     4.28913418    -2.04502212    -0.40305453     0.33369918     0.47073111
O      -3.77526144     4.45346772    -5.97215099    -0.39936985     0.10402608    -0.34852160
O      -7.93125140     4.28162462    -9.95397547     0.17957269     0.17285387     0.54039075
O      -7.80137961     4.18132788    -5.85905026     0.36095787    -0.02180733    -1.16222488
O      -7.85577142     8.71806050    -2.15184077    -0.65895907    -0.12003550    -0.17200337
O      -4.14901923     0.20146993    -5.89447522     0.81103813    -0.89960108    -0.87690203
O     -11.68479884     8.70684130    -6.17328144     0.00940329     0.60835057     0.15466893
O      -7.68875587     0.04152257    -9.99173161     0.65438954    -0.85178475    -0.31778942
O      -1.99229727     4.36130510    -3.82990701     1.08240092     0.53230862    -0.83799158
O      -2.01226251     4.08885808    -0.10779095     0.06101317    -0.41456363     0.38716664
O      -5.97580726     4.14509468    -3.91569605     0.27862374    -0.80040904    -0.51044009
O      -5.81059071     4.89434750    -8.01467921    -0.43088661    -0.81478982     0.46836113
O      -1.94340659     0.28350280    -4.17487439     0.06550012     0.59092141     1.22116429
O      -5.79468320     8.72758907    -7.84538017    -0.23702028    -0.31824335    -0.05506122
O      -5.90758612     0.29319437    -4.22071210    -0.45874722     0.23536905     2.19293637
O      -9.68307440     8.15815354    -8.09578287    -0.02450845     0.95580208    -0.02072519
