# total energy = -630.06360885 eV

CRYSTAL
PRIMVEC
        0.00279571     0.02951795    -7.98606283
       -7.83802570     0.01298533    -3.99532603
       -3.92160916     8.71933433     0.00634407
PRIMCOORD
56 1
Li     -3.91180489     2.35913888    -2.06227757    -0.42171540    -0.04515214     0.29111111
Li     -4.06083957     1.96253872    -6.01984247     0.86144585     0.17160220     0.09136645
Li     -7.95892341     2.20828767   -10.02874074     0.98772386     0.14939904    -0.11670087
Li     -7.94098377     1.98325569    -6.08586531     0.51243513     0.33327307     0.76280867
Li     -3.97253297     6.50756269    -1.98293526     0.46709880    -0.42862954    -0.33630061
Li     -3.74125388     6.37730114    -5.85360890    -0.13103726     0.28286850    -0.44010020
Li     -7.87521764     6.37823749    -9.74258660     0.02852302    -0.07778380    -0.98860964
Li     -7.74473036     6.63273410    -5.94550416    -0.05530087    -0.24421069     0.50121514
Ti     -1.93355360     2.40972792    -4.08592389    -0.88522208    -2.18472613    -0.25515838
Ti     -5.78765425     6.95192247    -7.94972620    -0.04322548    -3.03212926     0.78064455
Ti     -7.72683254     4.38270246    -7.75959614     1.08949522    -0.48762314     1.24244871
Ti     -7.93098749     4.34350195    -3.71540812    -0.74539059    -0.38633577     0.40473351
Ti     -3.82660540     4.40761832    -7.84954797    -1.31841774    -0.56786691     0.65864263
Ti     -4.24145082     4.43217785    -3.89955490     0.99186889    -0.31310413     1.01034563
Ti     -6.03295587     8.59384864    -2.20539260    -1.01407935     1.70357345    -1.32905788
Ni     -5.89201956     2.39291163    -7.96593678     0.40599494     1.00536709    -0.43322161
Ni     -5.99708461     2.30079672    -4.04673535    -0.26634594    -1.42799134     0.27123173
Ni     -9.71948819     6.44026273    -7.77525612    -0.52888733    -0.04973019    -1.00502990
Ni     -9.70447929     6.25252268    -4.00782268    -0.45348876     0.75813282     0.15007255
Ni     -2.03550422     2.25606468    -8.06044207     0.72953256    -0.36691780     0.16954595
Ni     -5.84839933     6.68824664    -4.03738720    -0.17266240    -0.18481501     0.24289167
Ni     -5.79563486     8.74082191    -5.98744672    -0.14758657     0.20282398     0.60854139
Mo     -5.95566753     0.06515340   -10.16459881    -0.07799047    -0.39627551    -0.40461098
Mo     -9.82720776     8.61901255    -6.22789707     1.41650213     0.68491814    -0.83206643
O      -2.02071673     1.78197963    -2.00547907     0.06613060     0.93479125    -0.61714428
O      -1.89439458     1.93183906    -6.04589191    -1.38266078    -0.92437918     0.64785239
O      -5.86028973     6.74978465    -1.94427892    -0.52465595    -0.36649504    -0.28839091
O      -5.79879322     6.89146656    -5.95707893    -0.01905148    -0.26539454     0.05024614
O      -5.91638480     2.06892176    -9.93800245    -0.03665421    -0.47414267    -0.59257082
O      -5.88594292     1.89855544    -5.94051642    -0.78130699     0.88644714    -0.06919758
O      -9.70214496     6.84698668    -9.85437353    -0.63088690     0.78674105     0.44247655
O      -9.70613245     6.72903163    -5.90669581    -0.57342731    -0.82706717     0.11318690
O      -4.08504156     2.46037495    -4.05201579     1.54692284     0.26087981    -0.08281930
O      -3.96259040     2.42502882    -7.96900467     0.50203010     0.80743703    -0.27324895
O      -7.90714505     2.29806565    -4.04167799    -0.19789479     0.89435186     0.23743279
O      -7.88889881     2.31129263    -8.02260164     0.16037506     0.74649608     0.24824913
O      -3.76363379     6.32100222    -3.99048450    -0.35906229     0.39715846     0.26588835
O      -3.96922909     6.42757727    -8.08515849     1.00019876    -0.61556622     0.92233791
O      -7.81171400     6.28044971    -3.87890288    -0.03430139    -0.05658570    -0.66512215
O      -7.73711247     6.28506750    -7.89900677     0.00035478     0.99700161     0.29570656
O      -3.98896047     4.46543936    -2.13847743     0.42714656    -0.40695904    -0.21159281
O      -3.66154213     4.43830676    -6.05914378    -0.38743137     0.31881308    -0.11597524
O      -8.06864824     4.31528493    -9.91018352     0.22680529    -0.07501285    -0.55618996
O      -7.78374106     4.23242816    -5.99604568     0.16230504     0.25232868    -1.15621590
O      -7.96079960     8.68928187    -2.19112465     0.86192564    -0.02375431     0.48649590
O      -8.03151918     8.58478100    -5.85989970     0.80688090     0.66887802    -0.21879390
O     -11.59322700     8.59093586    -5.99547245    -1.71181833    -0.03857615    -0.03432279
O     -11.68416001     8.68574513   -10.22385383     0.29051871     0.05472768     1.43831332
O      -1.87893736     4.15869000    -3.91149841    -0.89387948     1.19984949    -0.07397563
O      -1.92906565     4.25710785    -0.34475528    -0.76825582     0.01507706     0.57100338
O      -6.09874376     4.20720013    -3.90797244     1.98958927     0.05657673    -0.87737878
O      -5.77011462     4.32826207    -8.08250129    -0.83988739    -0.49804451     0.39853724
O      -1.80110360     0.06563010    -4.04408171    -0.33978644     0.29168784     0.64358934
O      -5.93468553     8.67831003    -8.03201406    -0.29667530     1.76745546    -0.38987201
O      -6.00375566     0.25740427    -3.97014215     0.88069152     0.85684717    -0.59563815
O      -5.79091365     0.64721379    -7.97716908    -0.44398072    -2.57853844    -0.69757408
