# total energy = -630.45955517 eV

CRYSTAL
PRIMVEC
        0.00279571     0.02951795    -7.98606283
       -7.83802570     0.01298533    -3.99532603
       -3.92160916     8.71933433     0.00634407
PRIMCOORD
56 1
Li     -3.94082420     2.18702996    -1.95707684    -0.36918517    -0.14273183     0.42232087
Li     -3.88739989     2.13960817    -5.91751646    -0.41096164     0.36860580    -0.96462312
Li     -7.99685747     2.33612845   -10.10605548     0.94589341    -0.28619544     0.46489336
Li     -8.10688822     2.60057204    -5.99371115     0.66387485    -0.28074994     0.48293887
Li     -3.94263763     6.22173311    -1.85891852    -0.03632508     0.38618823    -0.54145033
Li     -3.96686712     6.66318115    -5.99299310     0.77752950    -0.13082590     0.58521429
Li     -7.82674952     6.53464034    -9.90325708    -0.06087412     0.40865177    -0.17231192
Li     -7.67953241     6.40386085    -5.87998085    -0.97923880    -0.05363990     0.14629193
Ti     -2.12992930     2.05997095    -4.01649343     1.01753907    -0.27453792     0.53116311
Ti     -5.96096846     6.62450233    -7.80422762     0.90834122     0.20587628    -1.59525773
Ti     -7.91799060     4.40316131    -7.85025159    -0.72198802    -0.18974285     0.47240067
Ti     -7.82467148     4.47440287    -3.66711882    -0.36643450    -0.18306154    -2.60554683
Ti     -3.98028191     4.38246424    -7.77569302     1.07994882    -0.67715323     1.36484269
Ti     -3.98344347     4.36328614    -3.83411817    -0.90594578     0.75379648     0.05630055
Ti     -5.59864461     8.69212483    -1.89323459     0.83431578    -0.43342035    -1.02922533
Ni     -5.92432205     2.43673671    -8.12582925     0.12428149    -0.37163261     0.58974393
Ni     -5.91448451     2.18013662    -3.99559607    -0.49679611     0.04585797     0.31250398
Ni     -9.82640766     6.61846323    -7.89961494     0.14274728    -0.29207969    -1.02020791
Ni     -9.75366001     6.45445082    -4.05766612    -0.37459996     0.31317655     0.36535608
Ni     -2.01551867     2.15481061    -7.91068554     0.41679313     0.03221245    -0.88872961
Ni     -5.90078309     6.61958111    -3.93962582     0.49445259     0.94874275    -0.05558176
Ni     -1.93558625     0.02543631    -5.98680228     0.43942469    -0.67179875    -0.22895010
Mo     -5.90830313     0.04747386   -10.36748399     0.71016063     0.32700896     2.34634854
Mo     -9.62626196     8.70883676    -6.35071746     0.54661490    -0.65714924     1.78459202
O      -2.04914738     1.84908470    -1.93400994     0.36915239     0.75627421    -0.45402119
O      -1.92404127     1.86356818    -6.05348062    -0.79851138    -0.10228653     0.68966159
O      -5.93221838     6.79664797    -1.97470314     0.08933887     0.13603239     0.03665497
O      -5.85647027     6.75362256    -5.91948994     0.12814330     1.48872255    -0.18698394
O      -6.05330383     2.00489279   -10.04227772     0.72643837     0.26527033    -1.10898356
O      -5.75839555     1.78864403    -5.84476467    -0.82470156     0.49683596     0.44188346
O      -9.68904454     6.77475285    -9.91387078    -1.32037543     0.82722751     0.49678131
O      -9.82699279     6.76249568    -6.00661629     0.62906838     0.21388343    -0.38487153
O      -4.00031548     2.27649382    -4.02988093     0.14152908    -0.08434184     0.40024115
O      -3.91208480     2.40512610    -7.93629686    -0.31954820     0.56859178    -0.32819051
O      -7.81297632     2.56601171    -4.05027997    -0.23143040    -0.86774916    -0.30127213
O      -7.88649450     2.48452728    -7.96109214    -0.24602654    -0.55054475     0.00935489
O      -3.86249786     6.32262906    -3.95956868     0.14817950    -0.23705512     0.18493576
O      -3.94735034     6.35888982    -7.94032947    -0.23442893    -0.55013192     0.12279313
O      -7.81073284     6.45477157    -3.96410144    -0.84381925    -0.50555884     0.13310529
O      -7.85033525     6.40496373    -7.99202477    -0.51392480     0.15559188     0.47417487
O      -4.09074476     4.09631327    -2.06621186    -0.06363910     0.91076670     0.07298659
O      -4.18766548     4.18836197    -5.98379235     0.83935012     0.25933404    -0.87342883
O      -7.87712412     4.23003434    -9.96740398    -0.08035793     0.77788734     2.19824375
O      -7.69779016     4.43274718    -6.10768419    -0.68782982     0.15134461    -0.00748866
O      -4.18739530     0.17302272    -9.85140939     0.11389055    -0.29990203    -0.59486924
O      -7.77947289     8.61201200    -6.21615700    -1.62530366     0.10512310     0.27020563
O     -11.61628927     8.61131313    -6.06556002    -0.81833810     0.40549338     0.02717485
O      -7.69210559     0.06190796    -9.95951581    -1.14106762    -0.68144881     0.04276343
O      -2.10498014     4.05599310    -3.96402098     1.02876391    -0.24190752    -0.41166933
O      -9.77113238     4.57853567    -4.12410860    -0.71950621     0.05697734     0.43959667
O      -5.96879828     4.78498137    -4.07138964     0.78574407    -0.50480386     0.51588141
O      -5.92095797     4.59258275    -8.04130728     0.22924083    -0.56944844    -0.45169395
O      -2.13106983     0.12707670    -3.97145770     0.60718242     0.12770674     0.55782056
O      -5.80673426     8.54622501    -8.01373677     0.05364570    -0.73876079     0.37711257
O      -9.83621679     8.42061815    -4.09758933     0.45548441    -0.68978763    -1.88470706
O      -5.90872232     0.58138481    -7.99810152    -0.35364018     0.30335139    -1.37511706
