# total energy = -630.56528081 eV

CRYSTAL
PRIMVEC
        0.00279571     0.02951795    -7.98606283
       -7.83802570     0.01298533    -3.99532603
       -3.92160916     8.71933433     0.00634407
PRIMCOORD
56 1
Li     -3.98959247     2.43756363    -1.99962592    -0.06232329     0.02095208     0.43763379
Li     -3.95261293     2.23909617    -5.91331147    -0.43020009     0.07454456    -0.21518156
Li     -7.80525260     2.26887873    -9.97950621    -0.47001607    -0.59797325     0.39605107
Li     -7.97100978     2.26952223    -5.98825141     0.35714724    -0.00743242     0.66728851
Li     -3.94851751     6.50405708    -1.89456857     0.23850986    -0.35339647    -0.77864102
Li     -3.89002788     6.84768192    -5.78411756    -0.82411328    -0.42037807    -0.28568676
Li     -7.92539398     6.44377865   -10.02539934    -0.34767011     0.28681980     0.30457966
Li     -7.84179028     6.27080704    -5.90280076    -0.05442954    -0.05311665    -0.10976316
Ti     -2.03699110     2.14620083    -3.89386183     0.78063403     0.51739608    -0.47077184
Ti     -5.95475254     6.78677716    -7.93265555    -0.49569007     0.60480048     1.04281262
Ti     -7.69029927     4.29922757    -7.80603350    -0.51311379    -0.58397610     1.10195128
Ti     -7.82732096     4.34495785    -3.68462695     0.76562197    -0.29517453    -1.32311768
Ti     -3.73170978     4.47986524    -7.73301370    -1.81107430    -0.73722719     0.64774839
Ti     -3.87094749     4.47379309    -3.78971716    -0.28115682    -0.07500801    -0.19031989
Ti     -5.65407570     8.56508436    -2.12109805    -1.25977778     2.52076502     0.08568509
Ni     -5.80750742     2.30800642    -8.05478696    -1.67401140     0.67707763     0.38867839
Ni     -5.94474176     2.20108192    -3.98529657    -0.62692468     0.08128142     0.41981978
Ni     -9.85843093     6.54359809    -8.04515763     0.36087939     0.46226066     0.92809260
Ni     -9.83368742     6.47230344    -4.10979884    -0.41373573     1.13568186     0.19595719
Ni     -2.03651265     2.11915850    -7.85019015     0.11737876    -0.32545608    -0.66213651
Ni     -5.86882702     6.61862105    -3.92523679    -1.19767097    -0.75934135    -0.99227504
Ni     -1.98881704     0.03666195    -5.96315042    -0.03085961    -0.28867819     0.02662122
Mo     -5.86993567     0.07413463   -10.34955175    -1.71416277    -0.32370921    -0.40577875
Mo     -9.73368546     8.72459961    -6.35306680     0.43867329     0.12361983     0.45680500
O      -2.15544682     1.76129557    -1.92605506     0.65370306     0.69199393    -0.29751484
O      -2.07194403     1.83756861    -5.96012127     0.46463657     0.67040542    -0.14336236
O      -6.01649516     6.77814828    -1.95189601     0.31787789    -1.25824151    -0.38643014
O      -5.98832880     6.94503285    -5.94667134     0.62469193    -0.78043068    -0.07390809
O      -5.91294511     2.00134150   -10.01496853     0.94736195     0.01649830    -0.91401895
O      -6.07972885     1.85984002    -5.82534998     0.95995998    -0.03613653    -0.17719529
O      -9.92302867     6.75294141    -9.87814998     1.07259778     1.16956680    -0.50721339
O      -9.76908300     6.81121821    -6.16581308    -0.24808417    -0.05488658     0.62973565
O      -4.01259985     2.47924001    -4.01177514     0.28777280    -0.11954961     0.15500801
O      -3.99952982     2.51746174    -7.93907959     1.96681084     0.30772088     0.21120581
O      -7.87303074     2.34427497    -3.90380878    -0.55853514     0.62480990    -0.45644698
O      -7.81751016     2.25367369    -7.95092975    -0.44896500     0.86596729    -0.04839493
O      -3.91121969     6.41763376    -3.89728967     0.16994170     0.26711321    -0.18456493
O      -4.11073172     6.43789750    -8.07569352     1.18499143    -0.56191075     0.81017125
O      -7.96665317     6.36882281    -4.03294106     0.94430813    -0.95048556     0.71058471
O      -7.83772618     6.34184828    -7.99900360    -0.40997711    -1.08740679     0.08270674
O      -3.90483635     4.47763203    -2.04044461    -0.07322981    -0.12698782     0.42364522
O      -3.90886352     4.65802916    -5.97567339     0.15754908    -0.55570756    -0.26516175
O      -7.93572195     4.16066868    -9.92811644    -0.22838954     0.96171751     0.38828723
O      -7.79076539     4.18732969    -6.01602622     0.05939771     0.73711185    -0.62609550
O      -8.05082116     8.61677122    -2.28609305     0.39643498     0.01339496     0.88820003
O      -4.11313861     0.12580124    -5.93184589     0.47366036    -0.24207670    -0.29487872
O     -11.71535538     8.67546171    -5.99780351     0.04390779    -0.49997464    -0.44256228
O      -7.74078074     0.08910652    -9.90721017    -0.05310663    -0.43494049    -0.35165120
O      -1.85821573     4.01368665    -3.84237298    -1.57510382     0.01556315    -0.69916794
O      -9.76021939     4.60186786    -4.15630955     0.28695115     0.01480713     0.29035130
O      -5.91848059     4.53297860    -3.92122903     0.12420986     0.37939578    -0.17474193
O      -5.81652098     4.18323622    -8.04668856    -0.01811815     0.79383364    -0.06027690
O      -2.08820739     0.17040224    -3.96644678     0.53430519    -0.54026155    -0.20476024
O      -6.11483226     8.61549042    -8.03401667     0.61613895    -0.63290035    -0.06947139
O     -10.01526706     8.47222843    -4.14236622     0.33293343    -0.92887492     0.36408751
O      -5.80682884     0.51248762    -8.08684765     0.20001276    -0.71041327    -0.35418405
