# total energy = -630.53105673 eV

CRYSTAL
PRIMVEC
        0.00279571     0.02951795    -7.98606283
       -7.83802570     0.01298533    -3.99532603
       -3.92160916     8.71933433     0.00634407
PRIMCOORD
56 1
Li     -3.88707135     2.48867342    -1.88846652    -0.24801680    -0.51851742    -0.26126602
Li     -4.05902311     2.11477037    -6.05620582     0.63423077     0.76224567     0.18057636
Li     -7.85332099     2.03251400    -9.92024155     0.21795307     0.05894101    -0.45042265
Li     -7.77463119     2.19376956    -5.96964886    -0.63909213     0.27677262     0.10929848
Li     -3.95364991     6.44681023    -2.05211275     0.35016162     0.02578025     0.63871005
Li     -3.95961703     6.52013637    -5.82886183     0.43155208     0.21019056    -0.15290692
Li     -7.89453326     6.77304380    -9.91418393     0.60367344    -0.52404844     0.10172060
Li     -7.85250912     6.12926800    -5.81350470    -0.03291863     1.19870537    -0.13284306
Ti     -1.99428657     2.44326112    -4.09282237    -0.69952253    -0.18704982     1.14532849
Ti     -5.79723522     6.71875702    -7.77723035    -0.98593257     0.85323141    -0.23910315
Ti     -7.73402314     4.43531368    -7.83618128     0.38275026     0.26645844    -0.34962410
Ti     -7.85581749     4.24654670    -3.70459549     0.89900281     0.15287080     1.02037800
Ti     -3.94815158     4.46143880    -7.73437872     0.42066938    -1.09527180     0.56395230
Ti     -4.17316190     4.50278007    -3.72936110     0.28727924    -2.29863578    -0.51388653
Ti     -5.69770059     8.71335594    -2.19285160    -0.59612662     2.76387270    -0.43316597
Ni     -5.93976794     2.16353782    -7.93368799     0.54312383    -0.11886232     0.68276170
Ni     -5.83543120     2.12402886    -4.10697366    -0.74489093     1.14317464     0.77705673
Ni     -9.77025538     6.35239977    -8.10922651    -0.18468651    -0.42696743     0.59894158
Ni     -9.75099411     6.36032721    -3.93801936    -0.38133544     0.55488913     0.34072200
Ni     -2.03376650     2.30741117    -7.88376548     0.49904826    -1.21398686    -0.83639701
Ni     -5.96900579     6.73798702    -3.95097294    -1.17873957    -0.08652134    -0.28040265
Ni     -2.04128338     0.12924642    -5.98147894     0.58191565    -0.09877295     0.85400088
Mo     -9.80276867     8.71586524   -10.34079568    -0.96489501    -0.00599540     1.14669361
Mo     -9.73159139     8.66093195    -6.31019035    -0.70092569     0.74543612    -0.25199451
O      -2.02775855     1.99846932    -2.17981582     0.14313603    -0.16043465     0.89699485
O      -2.00094003     1.98464279    -5.98267968    -0.07773451    -0.81157763    -0.67708429
O      -5.84536044     6.90101901    -2.05928394    -0.69068513    -1.23579359     0.51550079
O      -5.92720085     6.99824747    -5.86073727    -0.20929694    -0.59535305    -0.20412636
O      -5.95939226     1.81888846    -9.70803430     0.59749765    -0.00855960    -1.46220131
O      -5.89706868     1.95957105    -6.00865823    -0.72939543    -0.29525649    -1.31897024
O      -9.77749020     6.68282856    -9.96648624    -0.47032232     0.77365457    -1.54958439
O      -9.74992377     6.80609555    -5.88599198    -0.44556516    -0.13047060     0.68795715
O      -3.94167033     2.52321697    -4.07626721     0.93901335    -0.59207391     0.33225417
O      -4.03635502     2.50004639    -8.00925366     0.05829872    -0.27118991     0.60665942
O      -7.87923330     2.31368220    -3.97658428    -0.06559289     0.00843729    -0.14360514
O      -7.85205311     2.43490072    -8.08086225    -0.07673761     0.10595193     1.11263577
O      -4.20221456     6.30747758    -3.98210249     1.45812004     1.53459817    -0.01101982
O      -3.81516313     6.38916487    -7.93137544    -0.43036073     0.68336092    -0.08483623
O      -7.90130555     6.25235915    -3.89150747     0.71374250     0.08835701    -0.36151577
O      -7.75638150     6.42613266    -7.90817724     0.04545489    -0.43065672    -0.17600688
O      -3.94958882     4.38001505    -1.95560173     0.50297409     0.57774108    -0.53793064
O      -3.84866532     4.44223130    -5.96391587    -0.32540234     0.19845388    -0.50603057
O      -7.64831252     4.32208205    -9.93214054    -0.10204562     0.11243935    -0.69914693
O      -7.81442057     4.40177276    -6.07108960     0.26459748    -1.05923672     0.25158155
O      -8.08336236     8.72193965    -9.78693238     0.62329975    -0.20197350    -0.92751705
O      -4.11670315     0.21567996    -6.15442795     1.36539211    -0.34090569    -0.14403769
O      -7.82030773     0.12698660    -6.09597049     0.38587435    -0.31346834    -0.02493421
O     -11.61380493     8.72782299    -9.96650232     0.32508849    -0.46321758    -0.10342850
O      -9.71917937     4.44831385    -8.18643100    -0.64420515    -0.51673685     0.75356921
O      -1.90007289     4.11595850    -7.94362756    -0.89912935     1.20120270    -0.22107876
O      -5.87861488     3.92277205    -4.09710647    -1.43295797     1.03181193     0.13810959
O      -5.81358670     4.79622184    -8.05647993    -0.09482862    -0.35406410     0.50421557
O      -2.16498799     0.36377284    -4.02412063     0.35808884    -0.12115573    -0.50409177
O      -5.86694873     8.60462830    -7.84668074     0.09607702     0.36768000    -0.93952848
O      -5.91504584     0.32407910    -4.19270720     0.43268167    -1.05954126     0.82796526
O      -9.93392596     8.13490251    -8.03034182     0.05115941     0.22874675    -0.08573843
