# total energy = -631.00780689 eV

CRYSTAL
PRIMVEC
        0.00279571     0.02951795    -7.98606283
       -7.83802570     0.01298533    -3.99532603
       -3.92160916     8.71933433     0.00634407
PRIMCOORD
56 1
Li     -3.90351138     2.27595362    -1.87691485     0.16385413     0.03001473    -0.10746888
Li     -3.83124044     2.33689378    -5.86286281    -0.46664865    -0.04665891    -0.83032805
Li     -7.80576876     2.37042109    -9.93679425    -0.01755738     0.34280763    -0.31409605
Li     -7.87541825     2.33038774    -5.92532454    -0.12023032    -0.24953571     0.19345029
Li     -3.93105358     6.56645676    -1.96090444    -0.00442533     0.14278489    -0.50118037
Li     -3.64932719     6.27728773    -5.95027722    -1.11068353     0.12559807    -0.00175761
Li     -7.80806527     6.51297605   -10.01866666    -0.57416261    -0.33261923    -0.09907973
Li     -7.88289888     6.48546041    -5.97063103    -0.18335365     0.04881767     0.26365473
Ti     -1.96480118     1.99559246    -4.03136291    -0.06003838    -1.42419074     1.43229161
Ti     -5.94770334     6.55745510    -7.94097687     1.16094802    -0.22776597     0.21511944
Ti     -7.83515004     4.29174008    -7.78622150    -0.17611063     1.25786449     1.49631243
Ti     -7.77370931     4.39935860    -3.83968764    -0.07914490    -1.55841046     1.39730354
Ti     -3.76068332     4.38032653    -7.78128809    -0.00041447     0.34126253     0.47483518
Ti     -3.91298109     4.41062628    -3.74062659     0.28191962    -0.51092185     0.97740388
Ti     -6.19064958     8.67898480    -1.86266461     0.70960823     1.62681851    -1.63251878
Ni     -5.80346416     2.28984154    -7.90312055    -0.93621998    -0.04606057     0.28651282
Ni     -5.90720298     2.27948211    -3.98315387     0.48814186     0.54868370     0.03557446
Ni     -9.71430787     6.47507204    -8.11283549    -1.00174118    -0.30129671     0.71908260
Ni     -9.77004046     6.54648964    -4.07138960    -0.30657446     0.97552086    -0.67122120
Ni     -1.93134312     2.13608326    -7.93832472    -0.14278271    -0.40618134    -0.12577491
Ni     -5.86748292     6.58171916    -4.04156991     0.61649116    -0.35459892     0.16454731
Ni     -5.96897944     8.72243953    -5.97784026     0.83796458     0.48274223     0.25538376
Mo     -6.11614725     0.11607084   -10.19659848     1.07012195    -0.17455459    -0.35201207
Mo     -5.91559672     0.13830476    -6.36807617    -0.53762133    -0.78363726     0.91583992
O      -1.98456930     1.97377339    -1.93122468     0.11556534    -0.49515048    -0.21577572
O      -1.87902379     1.89683580    -5.93011632    -0.63038024    -0.01367665    -1.19350312
O      -5.97407741     6.78509154    -2.04085904     0.67211364    -0.09556992     0.18586032
O      -5.77010365     6.84693988    -5.94185564    -0.86348216     0.70269784    -0.60860787
O      -5.76526991     1.95314380    -9.95518296    -1.24023378     0.15180270     0.31341217
O      -5.89192835     1.98913508    -5.95809859    -0.02961677     0.50691257     0.06589186
O      -9.74933222     6.80111046   -10.17272710     0.23354107     0.11366593     1.26356421
O      -9.88687593     6.82364708    -5.97730391     1.19347988     0.21768583    -0.34292920
O      -3.86208464     2.35405628    -4.02827647     0.20499989     0.28536597     0.53331639
O      -3.98677080     2.41617437    -7.87088541     1.20247842     0.50604017    -0.19223770
O      -7.82438105     2.39992978    -4.00427139    -0.00915737     0.00014993     0.46561464
O      -7.85435638     2.38619549    -7.94557319     0.37478944     0.14871141    -0.29523608
O      -3.81758215     6.26833844    -4.03062866    -0.35083454     0.97561322     0.22484493
O      -3.94582426     6.43318399    -8.12055703    -0.06397219    -0.99058180     1.30633273
O      -7.72887104     6.24999966    -4.05115988    -0.17177694     2.30827546    -0.20966950
O      -7.84605992     6.42378156    -7.90207765     0.06983160    -0.61786112    -0.60681295
O      -3.87124262     4.22818027    -1.94939793    -0.25997049     0.23840586    -0.62022372
O      -3.90219599     4.39038651    -5.96392129     0.30564837    -0.39217015    -1.82182541
O      -7.71266999     4.39020294   -10.00283267    -0.27852324    -0.22027846    -0.21633875
O      -7.79556213     4.30842891    -5.94725895     0.03689630     0.09597065    -2.19116584
O      -4.03292306     0.08197394   -10.01259312    -0.58260263    -0.22709126    -0.16688539
O      -4.04204214     0.11864982    -6.06567422    -0.64212331    -0.50502407     0.24193692
O      -7.73385293     0.05845927    -6.03213341     1.70776857     0.19779541    -0.14923228
O      -0.03934154     0.06270479    -6.11569797     0.29367314     0.18962678     0.20478310
O      -9.75596686     4.51959661    -8.10876970     0.40606812    -0.29343749     0.20483982
O      -9.71064007     4.73785237    -4.08351503    -1.05595034    -1.23393504     0.31717270
O      -5.80233305     4.39992937    -4.02435187    -0.47944734    -0.33133120    -0.26399915
O      -5.91394219     4.65337486    -7.95059260     0.64898729    -0.05569466    -0.21716344
O      -1.75003212     0.12443675    -3.88078730    -0.94503613     0.92465745    -0.60392773
O      -6.04478497     8.58615641    -8.05970340     0.52820127    -0.71869017     1.68773726
O      -9.79131281     8.39098609    -3.95689203    -0.07345455     0.70452067    -0.48244174
O      -9.81295015     8.36201229    -8.15959025    -0.16044413    -0.91432206    -0.66806085
