# total energy = -631.16187470 eV

CRYSTAL
PRIMVEC
        0.00279571     0.02951795    -7.98606283
       -7.83802570     0.01298533    -3.99532603
       -3.92160916     8.71933433     0.00634407
PRIMCOORD
56 1
Li     -3.95256232     2.32615830    -1.82810252     0.27157529    -0.12492564    -0.34767531
Li     -3.94207331     2.33457819    -5.96780061    -0.16758791    -0.13515397     0.10512061
Li     -7.78552229     2.13077985    -9.91446047    -0.15223982     0.45887192    -0.62628430
Li     -7.89157479     2.38826089    -5.93023292     0.22968993    -0.17099900     0.28043503
Li     -3.92675468     6.55089505    -2.03526887     0.44069162    -0.09674292     0.22713146
Li     -4.10897809     6.37088943    -5.87387176     0.76324273     0.19019238     0.24050195
Li     -7.80504016     6.42544300   -10.04576251    -0.33814339    -0.07423680     0.14832807
Li     -7.84198341     6.53139065    -5.77471845     0.27603781     0.15481548    -1.06459914
Ti     -1.88906978     2.17014461    -4.09959883    -1.46276309    -0.16799974    -0.19536341
Ti     -5.78498079     6.64482764    -8.02536532    -1.10425970    -2.01772180     0.26941137
Ti     -7.94752288     4.50188004    -7.71065277     0.82677589     0.49728139     0.16051029
Ti     -7.82249607     4.32782865    -3.76482645     0.20538494    -0.19434951    -1.01265183
Ti     -3.83183116     4.45226240    -7.74081428     0.99293864    -0.90351918     1.32465505
Ti     -3.97277968     4.40099820    -3.69955774    -0.27300102    -0.55648194    -1.57789199
Ti     -6.12636366     8.62919326    -2.09708058     0.55438606     0.76203280    -0.67112330
Ni     -5.90315268     2.48546195    -7.95354102     0.19236042     0.03782365    -0.11966520
Ni     -5.86754681     2.09597542    -3.97377097    -0.06080690     0.51924618    -0.10106039
Ni     -9.80232253     6.64445132    -7.96181353     0.21602474     0.03172346     0.66098643
Ni     -9.76698570     6.47498826    -4.08211349     0.64263822     0.14361369    -0.22294857
Ni     -1.97728832     2.03459400    -7.97360675     0.27201444     0.08243063     0.13524117
Ni     -5.87353007     6.51639412    -4.01860786     0.02323304    -0.04671035    -0.27924548
Ni     -5.95922064     8.71497422    -5.96341568    -0.01938022     1.14112814    -0.09550106
Mo     -5.97568243     0.09856175   -10.27906007    -1.28148285    -0.12655680    -0.62588893
Mo     -9.74338259     8.69818623    -6.31916654     0.09394895    -0.66239648    -0.29181798
O      -1.93761389     1.78507689    -1.85815164     0.32638329     0.71687890    -0.49303271
O      -2.05304793     1.84737561    -6.10434811     0.62420252     0.34894529     1.22740680
O      -5.85456306     6.70852239    -2.13567831    -0.13814049     0.00006581     1.18816352
O      -5.96035356     6.96554233    -5.91840401     0.77138033    -2.13191900    -0.31475119
O      -5.83014597     2.00719183   -10.05022131    -0.42014030     0.18450768    -0.47011897
O      -5.87478395     1.83908636    -5.84721626    -0.23620088     0.90766070     0.69734030
O      -9.90225052     7.03511138    -9.72787449     0.48426969    -0.58503849    -0.40070645
O      -9.67280607     6.69899919    -6.12963076    -0.26464196     0.18015495     0.49668635
O      -3.88620981     2.34951547    -3.94109711     0.06884914     0.45491412     0.07889642
O      -3.95686714     2.53752807    -7.90599369     0.06873883    -0.27514082    -0.62021375
O      -7.89823933     2.37236592    -3.98528339     0.37443341    -0.17260579     0.13490486
O      -7.82292147     2.47432408    -7.97900861    -0.16651295     0.18512298     0.01806611
O      -3.91279023     6.37548009    -3.91893191     0.29838374    -0.62610428    -0.64902825
O      -3.85968628     6.48575105    -7.91087415    -0.75495282    -1.17479323    -0.22196680
O      -7.77019804     6.32153907    -4.03864046    -0.40082715    -0.18316792     1.24699290
O      -7.77973124     6.43868068    -8.10112239    -0.97712134    -0.82692075     0.60668752
O      -4.10752734     4.35452335    -1.98051870     0.41130551     0.04788370     1.43388217
O      -3.78519983     4.27516493    -5.94250691    -0.41737980     1.16347984    -1.34761439
O      -7.86012558     4.43053756   -10.02654754    -0.09518854    -0.07875839     1.53000410
O      -7.96546591     4.41867546    -5.95919926     0.26224224    -0.14215986    -0.71736076
O      -3.98077062     0.05150264    -2.02700514    -0.80224014    -0.33911747     0.05692399
O      -7.87624417     8.68712820    -5.95498197    -0.90153060    -0.06989033    -0.74174161
O     -11.50013795     8.44724775    -5.96187616     0.01171072     0.97972044    -0.30587423
O      -7.79979437     0.15428412   -10.20269039     0.75852405     0.11169103     0.32904253
O      -1.96223024     4.12725448    -3.98563661    -0.99551167    -0.34554262    -0.07822477
O      -9.73480141     4.61164986    -4.11394627    -1.74019462     0.29084005     0.36014701
O      -5.88454012     4.32103891    -4.13793193     0.44256514     0.18103990     0.22406194
O      -5.96938887     4.49264227    -7.84682118     1.50946715    -0.14372590    -0.42025407
O      -1.93828420     0.25339781    -4.01155752     0.28347099     0.11882297     0.47486741
O      -5.95788497     8.36889643    -8.08195720     0.19514619     2.45033296    -0.13399014
O      -9.66161762     8.30727884    -4.07301228    -0.30218936     0.74113340     1.02096680
O      -5.94848343     0.66473221    -8.04989262     0.35712357    -0.68513227    -0.52134284
