# total energy = -630.69284015 eV

CRYSTAL
PRIMVEC
        0.00285542     0.02004370    -7.95977623
       -7.82940539     0.00763210    -3.98158109
       -3.91729101     8.74642787     0.01461334
PRIMCOORD
56 1
Li     -3.94583401     2.46301608    -2.06697317    -0.31254980    -0.43051358     0.70325311
Li     -3.98993127     2.17181705    -5.91942486    -0.00504481    -0.00477818    -0.43874045
Li     -7.87808451     1.94601756    -9.99548032     0.60675067    -0.00725480     0.26040630
Li     -7.85110958     2.50021414    -5.93842186    -0.10102920    -0.34739714     0.26436774
Li     -3.82362370     6.46643999    -1.87188224    -0.11854635    -0.27785811    -0.29862991
Li     -3.78429193     6.59563496    -5.98107322    -1.26124872    -0.28508682     0.30863832
Li     -7.89056827     6.37415688    -9.86953259     0.14586148     0.36213136    -0.16972324
Li     -7.79891320     6.49070842    -5.82729769    -0.18180562     0.06338836     0.39093060
Ti     -2.02909301     2.32077724    -4.03564335    -0.38976290    -0.40512640    -0.40111080
Ti     -5.98783310     6.94578302    -7.92446835     1.35754587    -0.43405977     0.58284381
Ti     -7.78559424     4.36181056    -7.75677832     0.27784964     0.15583381    -0.23358705
Ti     -7.86997070     4.27177939    -3.57964393    -0.19005040     1.07791131    -0.18130744
Ti     -3.88679324     4.34250204    -7.74873582    -1.13115686     0.13723663     0.72655591
Ti     -4.07368750     4.46577702    -3.76883607    -0.45999333    -0.11119946    -0.44401665
Ti     -5.71901953     8.62693244    -2.31030273    -0.54804425     1.73093411     1.15503062
Ni     -5.92464757     2.32406856    -8.00300435     0.54745049     0.58759177    -0.74916509
Ni     -5.96196008     2.26932515    -4.04980646     0.56886206    -0.49915415     0.83699042
Ni     -9.77966719     6.50016831    -7.97651668     0.44645904     0.10202342     0.90741020
Ni     -9.87963571     6.39787387    -3.82715622     0.98198262     0.14002628    -0.82081030
Ni     -2.00304361     2.18062958    -8.04430703     0.45374273    -0.04269467     0.69560898
Ni     -5.81146776     6.65078243    -3.97516425    -0.66694377    -0.28512976    -0.19431529
Ni     -5.72229351     8.71501944    -6.08536222    -0.82420311    -0.19832917     2.44812772
Mo     -9.72477886     8.67644174   -10.09037400     0.37971281     1.42360444    -0.63023496
Mo     -9.80793469     8.74562313    -6.18404333     3.57218405     0.50888993    -1.02967079
O      -2.01608458     1.85405036    -2.13839092     0.11153756    -0.18772168     0.50877045
O      -1.90230667     1.79220506    -5.94151817    -0.43007226     0.15972585    -0.73121837
O      -5.81296040     6.79484354    -2.00486121    -0.41101624    -0.48714179     0.09087747
O      -5.80992743     6.85649445    -5.88756426    -0.20279119     0.21746230    -0.94278587
O      -5.90245445     2.01753584    -9.97441735     0.33171801    -0.05093017    -0.19585234
O      -5.98435249     2.05647161    -6.02230201     0.28740873    -0.14194361     0.52638731
O      -9.82182472     6.72677526    -9.92246888     0.60353261    -0.25210321     0.72730996
O      -9.75195730     6.92312294    -5.87424774    -0.46629096    -1.11878593     0.07657837
O      -4.01064921     2.42999931    -3.98645207     0.46503562    -0.02490284    -0.28197029
O      -3.83338313     2.39101771    -7.92608898    -0.90781065     0.63011221    -0.52228601
O      -7.89909053     2.33091368    -3.92887524    -0.39336718     0.62651306    -0.53688605
O      -7.88539973     2.40681766    -8.01868136    -0.16651343     0.47078070     0.65036417
O      -3.79320550     6.37274645    -3.95154807    -0.65839071     0.12279395    -0.14965086
O      -4.10795547     6.44243017    -7.97913946     0.99111053    -1.02251529     0.62562781
O      -7.90259953     6.25050109    -3.79398354     0.23820699     0.29242504    -0.83620062
O      -7.78582687     6.44378689    -7.87252516    -0.78913132    -0.30984132    -0.61983952
O      -3.86183001     4.41699544    -2.02278042    -0.13026116     0.01141819     0.42557739
O      -3.93731275     4.32123616    -5.98337085    -0.12837953     0.45262374    -0.20755660
O      -7.95180517     4.48465940    -9.78143785    -0.15554363    -0.13543879    -0.57141865
O      -7.95245644     4.59139088    -6.01074256     0.06749875    -0.99492345    -0.01836361
O      -7.96980248     8.54907212    -2.09884417     2.79049450    -0.02291226     0.38749986
O      -4.06442727     0.06513012    -6.00488600    -0.61767579    -0.00802892     0.05617110
O      -7.68584363     0.02851980    -6.03572999    -2.39380307    -0.41218045     0.18645434
O     -11.49037875     8.63922252   -10.02263905    -3.04276606    -0.00515892     0.32330668
O      -2.10593327     4.15506595    -3.98743701     1.37137179     0.32029657    -0.25800071
O      -9.81185719     4.47190938   -11.86895509     0.26159695    -0.51583722    -0.63767810
O      -5.98940757     4.17220841    -4.01370931     0.28795977     0.19836597     0.09277694
O      -5.91451817     4.19631377    -8.13953189     0.42012433     0.23324257     0.81481051
O      -1.80413510     0.10158107    -4.07368152    -0.13228779     0.19702629    -1.10686402
O      -5.93868868     8.75987396    -7.96712009     0.11986915    -0.47681308    -0.91137691
O      -5.83096407     0.39819001    -3.96888745    -0.33507486     0.13002482    -0.92015441
O      -5.83577682     0.52521579    -8.04496838    -0.20436986    -0.79279827     0.29367642
