# total energy = -630.60906616 eV

CRYSTAL
PRIMVEC
        0.00279571     0.02951795    -7.98606283
       -7.83802570     0.01298533    -3.99532603
       -3.92160916     8.71933433     0.00634407
PRIMCOORD
56 1
Li     -4.11053573     1.92873749    -1.81963484     0.67468546     0.31334942     0.02560412
Li     -3.81511569     2.45114001    -6.02708942    -0.43530089    -0.03508766     0.00212489
Li     -7.80916416     2.64811994    -9.86704562    -0.05149408    -0.59754038    -0.13638669
Li     -7.72857768     2.10665394    -6.02469717    -0.73502584     0.14302895     0.71955514
Li     -3.70899232     6.52634678    -2.03322635    -0.25248334     0.12729846     0.20357806
Li     -4.06201880     6.28350842    -5.93505994     0.24255337     0.35947775     0.07294953
Li     -7.78815444     6.47807974   -10.06279654    -0.25604224    -0.00772676     0.41767258
Li     -7.69492929     6.49946450    -5.81200888    -1.31047461     0.18798882    -0.52654566
Ti     -2.03560609     2.31487308    -3.92174669     0.21236652     0.06072924     0.14150688
Ti     -5.84547562     6.72452755    -8.02872248    -0.18297831    -0.12236434     0.16662503
Ti     -7.74147152     4.44450053    -7.65992398     0.03733820     0.57389154    -2.09874402
Ti     -7.82415653     4.29470247    -3.81080436    -0.40679748     0.61888380     0.81732481
Ti     -3.84691733     4.40667302    -7.84312053     0.32491497     0.50784087     0.81360015
Ti     -4.04510015     4.34597246    -3.61328673    -0.31556451     1.05263811    -1.92582872
Ti     -2.16756843     0.01195067    -2.15465601     0.42540116     1.31631807     0.84294627
Ni     -6.00662710     2.18549654    -7.90514748     1.94911828     0.29440198     0.07655597
Ni     -5.86866478     2.15719933    -4.11782691     0.20245413     0.41810362     1.86171893
Ni     -9.77821870     6.38119639    -8.14586053    -0.60513807    -0.06979431     0.66627097
Ni     -9.67815972     6.45539041    -4.04910171    -0.71504260     0.64459865     0.75674559
Ni     -1.92997615     2.13118743    -7.89454176     0.01888581    -0.34682521    -0.54718032
Ni     -5.97138248     6.63553629    -3.95977584     1.28686383     0.31859471    -0.38649724
Ni     -2.00347138     0.06006643    -6.03007307    -0.36668449     1.36059024     1.14566893
Mo    -10.01372315     8.65573970   -10.24582507     0.59743933     0.47784983    -1.11177031
Mo     -5.82273925     0.12416016    -6.35986416     1.87325866    -1.50104219    -0.36712914
O      -2.02506878     1.97125850    -1.93726155     0.70800169    -0.32634077     0.16083946
O      -1.95439378     1.95781119    -5.89382139     0.06242382    -0.44302922    -1.04394054
O      -5.72821542     6.88303405    -2.00921826    -0.20523906    -1.26735214    -0.21105520
O      -5.98646252     6.96400998    -5.90912478     1.00520622    -0.40313118    -0.31996783
O      -5.94589835     1.80504860    -9.74645373    -0.44885755    -0.29290823     0.18930987
O      -5.76195150     2.06666008    -5.98468500    -0.64253547    -0.19264680    -1.04853627
O      -9.77300428     6.76700261   -10.17088257     0.10932374    -0.02838535     0.45448610
O      -9.65544499     6.88280841    -5.80858583    -0.26133195     0.74373042    -1.29584418
O      -3.97089706     2.33441389    -3.83772319     0.75514204     0.76647615    -0.61746914
O      -4.17255191     2.59204648    -7.98195350     0.00504573    -2.28162943    -0.14549468
O      -7.75287258     2.36082737    -3.88180597    -0.18017994    -0.49826663    -0.79690542
O      -7.82321247     2.47359529    -7.94806186    -0.57967881     0.68705747     0.46488702
O      -4.04634635     6.33364209    -4.04317903     0.59389997    -1.04511582     0.61764840
O      -3.74815200     6.40479899    -7.98787030    -1.36089405     0.13100740    -0.26883371
O      -7.80708755     6.29926896    -3.95961174     0.23792317     0.08872789    -0.13305919
O      -7.81081381     6.47290552    -8.07485360     0.37271315    -1.05771029     0.48645324
O      -3.77805235     4.48195632    -1.92772936    -0.20496582     0.43264051     0.66981750
O      -3.79668043     4.47682627    -6.07530979    -0.06289844    -0.56693755     0.70169692
O      -7.85942435     4.56832754   -10.01122020     0.01439193    -0.75180578    -0.07589115
O      -8.03876822     4.53535345    -5.97536532     0.52315630    -0.02566171     1.48115947
O      -7.84302845     8.69807343    -2.03229021    -1.00778228    -0.25910244    -0.06343509
O      -3.94792209     0.13185569    -6.23582349    -0.28959016     0.33762001     0.58218692
O      -7.53904845     0.15913024    -5.92966290    -0.81342265    -0.16352460    -0.26953941
O      -3.89436498     8.65005349    -6.18301048    -0.91419263    -0.06499089     0.26715224
O      -2.00760024     4.27306835    -3.95137561     0.22873780     0.58917005    -0.53293507
O      -1.91266086     3.95675297    -7.96980479     0.12328824     0.40192555    -0.09361555
O      -5.88583720     4.02337324    -3.97124333     0.03779640     0.27248351    -0.24678363
O      -5.87733611     4.71745192    -7.89621728     0.08547020     0.48519092    -0.12425482
O      -1.80007703     0.44536400    -3.92864839    -0.17908088    -1.35241226    -0.90164623
O      -5.85104831     8.60892462    -8.01352923     0.16805542     0.56161511    -0.36663056
O      -5.70887292     0.30710818    -4.03431482    -0.35300554    -0.17101409     0.31906111
O      -9.86633147     8.25002381    -8.17075695     0.14768014    -0.47401836     0.41237392
