# total energy = -630.85951230 eV

CRYSTAL
PRIMVEC
        0.00285542     0.02004370    -7.95977623
       -7.82940539     0.00763210    -3.98158109
       -3.91729101     8.74642787     0.01461334
PRIMCOORD
56 1
Li     -4.01596659     2.25524948    -1.96841782     0.77949412     0.23246048     0.03379360
Li     -4.11921394     2.11031039    -6.01957175     0.71633243     0.14632413     0.23493493
Li     -7.80533775     1.99851378    -9.88663354     0.16280273     0.29888597    -0.70701357
Li     -7.85459089     2.37035034    -5.80640176    -0.05365377    -0.17180949    -0.46167605
Li     -3.96019929     6.45137788    -1.88504569     0.41289748     0.18482886    -0.10786190
Li     -3.94854081     6.62273186    -5.73173177     0.17309830    -0.17976582    -0.54350407
Li     -7.71238482     6.53796370   -10.01257712    -0.33706105    -0.31101596     0.35122349
Li     -7.77531073     6.49834211    -5.92811118     0.03681943     0.05179118     0.37519253
Ti     -1.97978801     2.32736698    -4.17498859    -0.27394936    -0.21392445     1.01104877
Ti     -5.81515389     6.75568231    -7.91843653    -0.94337973    -1.19574029     0.22079910
Ti     -7.81190398     4.47899501    -7.72289562     0.89493952    -1.13645456    -1.09346268
Ti     -7.73511897     4.36087094    -3.76241335     0.08595730    -1.08673539    -1.22985719
Ti     -3.84869427     4.46169997    -7.57812462    -1.03484881    -0.32059849    -0.77133875
Ti     -4.03732091     4.48956964    -3.71357091    -0.08924679    -1.11103636     0.84376074
Ti     -5.96173838     8.71784953    -2.14360013     0.86573866     1.96776896    -0.72761443
Ni     -5.86959676     2.27898264    -8.10546154    -0.63566529     1.42584224     0.67587758
Ni     -5.92846562     2.09077363    -4.08756166     0.60351816     1.19947022     1.61528878
Ni     -9.77534184     6.47365598    -7.84998683     0.12214815     0.47908431     1.14906712
Ni     -9.72765514     6.42605648    -3.98834855     0.01160190     0.88976906     0.30447238
Ni     -2.08557452     2.36309019    -7.98979520     1.01940777    -0.92659318     0.00302333
Ni     -5.79373139     6.70231788    -3.99610996    -1.04326793    -0.09135292     0.29267662
Ni     -5.91375337     8.72000816    -5.90229342    -0.40494745     0.46007590    -0.62356216
Mo     -9.80650651     8.57403951   -10.14389566    -0.11262382     1.91965261    -0.37477842
Mo     -9.82972359     8.71814353    -6.27734496    -0.41293812    -0.87831455    -0.59228922
O      -1.88407913     1.86888590    -2.01419404    -0.54943529     0.88933232     0.71379479
O      -2.13316542     1.83684203    -6.03746765     0.60791771     0.23065069     0.06901924
O      -5.86086518     6.85602940    -2.07393652     0.63445406    -1.54479248     0.68126119
O      -5.81755121     6.86836976    -5.91489626    -0.68214052     0.03807091     0.92207493
O      -5.78134834     1.95993170   -10.01575069    -1.00001017    -0.86401700    -0.76500854
O      -5.93046602     1.98152617    -5.99132740    -0.63623478    -0.76954938    -0.13381010
O      -9.75043699     6.77917741    -9.70090409    -0.06213943     0.01358553    -0.85963390
O      -9.66473043     6.77087523    -5.88165866    -1.01984286     0.13612271    -0.81996599
O      -3.87147827     2.41997889    -3.89334590    -0.08631725     0.18030568    -0.65640290
O      -3.99676578     2.52285708    -7.92554539     0.45194258     0.43901557    -0.23285549
O      -8.01429198     2.28973437    -3.85356252     0.31694435     0.95381395    -0.61605380
O      -7.81779262     2.45788432    -8.00564131     0.01255195     0.00151710    -0.46438839
O      -3.91225148     6.46314615    -3.87739747     0.67836810    -0.86574906    -0.05425792
O      -3.97384654     6.50771807    -7.77522113     1.71009483    -0.94436799    -0.80564297
O      -7.77317831     6.28750213    -3.94940136     0.26545795     0.99795451    -0.65397246
O      -7.79512715     6.37023092    -7.99752584    -0.50835020     0.43100619     0.56076531
O      -4.06538293     4.49861599    -1.91793502     0.51787073    -0.04270253    -1.21448151
O      -4.00327343     4.41665926    -5.83828544     0.24483806     0.36076477    -0.35176387
O      -7.85060979     4.40849686   -10.03437282     0.04378852     0.03039764     2.33193883
O      -7.82875265     4.34062247    -5.99691938    -0.52558612     0.19921015     1.04765770
O      -7.76109919     8.61076566    -2.01817571    -2.59570397     0.21369274     0.04960528
O      -8.04034687     8.74993435    -6.09076041     0.39461885    -0.08774339     0.50401172
O     -11.65817789     8.61517213    -6.00378907     0.66425803     0.06551538     0.17610030
O     -11.58551560     8.71574688    -9.98408921     0.66537472    -0.19349409     0.04897244
O      -1.95012924     4.22505150    -4.14793910    -0.72904901     0.33061137     0.65901554
O      -9.78949246     4.58850219    -3.99350244    -0.29375439    -1.09869228    -0.05348091
O      -5.86755157     3.96543962    -4.07067421    -0.20219245     0.27507594     0.19560315
O      -5.90667124     4.54838883    -7.95731343     0.80913743    -0.42630498     0.04549988
O      -1.92158608     0.31134728    -4.02269200     0.02437951    -0.47812493    -0.37994117
O      -5.98596222     8.52488484    -7.83703835     0.35441765     0.73036103    -0.40174668
O      -5.83970417     0.22827795    -4.03168104     0.06903072    -0.41927686     0.54822638
O      -5.89357213     0.47028902    -8.11040800     0.13950894    -0.29471612    -0.13065725
