# total energy = -630.49771881 eV

CRYSTAL
PRIMVEC
        0.00279571     0.02951795    -7.98606283
       -7.83802570     0.01298533    -3.99532603
       -3.92160916     8.71933433     0.00634407
PRIMCOORD
56 1
Li     -3.87660907     2.43103948    -2.01471111    -0.16686842    -0.50432080     0.45197554
Li     -4.00194009     2.34464411    -5.94960223     0.40494010    -0.02063649    -0.38151656
Li     -7.84066750     2.33699452   -10.17512318    -0.14509992    -0.29447244     1.61002538
Li     -7.77379499     2.17790398    -6.03357049    -0.10387304     0.09816249     0.29000698
Li     -3.97828783     6.65214804    -2.03926112     0.13973565    -0.23240382     0.46649297
Li     -4.01400195     6.53835509    -6.01864574     0.46205365    -0.18951999     0.77709425
Li     -7.95124857     6.33345008   -10.04207219     0.15295462     0.04054341     0.41510155
Li     -7.85168837     6.79168852    -5.85817294    -0.43028285    -0.67004075    -0.10218785
Ti     -1.96887011     2.23843041    -4.02928257     1.97850236    -0.50242459    -0.78144591
Ti     -5.83956914     6.60625768    -7.94450795    -0.86487626     0.35636437    -0.20020939
Ti     -7.81004948     4.40452157    -7.70596608    -0.07856286    -0.16958891     1.06400496
Ti     -7.82029466     4.25545617    -3.76790278     0.99369515     0.56557129    -0.38595316
Ti     -3.77276810     4.35342641    -7.80251672    -0.06932961     0.06257014     1.52434907
Ti     -3.85034619     4.46597937    -3.73047445    -0.83962851     0.60949546    -0.33439110
Ti     -6.11504532     8.62029399    -2.08178261    -1.37551020     1.78910252    -0.77769118
Ni     -5.76266870     2.49856092    -8.11111953    -1.60460594    -2.29211438     0.47773505
Ni     -5.75004604     2.18027321    -4.06332411    -1.54290431     0.64202870    -0.09273150
Ni     -9.76278167     6.70595775    -7.89091100    -0.59818127    -0.56573016     0.39543581
Ni     -9.78974876     6.40462197    -3.95578333    -0.17616291     1.55950158    -0.74260973
Ni     -1.83996272     2.20571113    -8.07680808    -1.73633360    -0.80674138     0.67507302
Ni     -5.94557866     6.51512057    -4.02517651     0.23809975    -0.34479696     0.34492319
Ni     -6.04176658     8.70184821    -5.99479214     1.22241789     0.86415304     0.92645900
Mo     -9.97306621     8.75079387   -10.20381972    -1.18303015     0.09141442     0.50521291
Mo     -9.80878494     8.69507136    -6.33135320    -1.12758560     0.56891022    -0.63987800
O      -1.92695799     1.84157353    -1.98854692     0.27100253     0.51419954    -0.14644169
O      -1.93845897     1.85003350    -6.03991197    -0.40994571    -0.19032968     0.27576133
O      -6.01687815     6.78451227    -1.98993798     0.82689492    -1.07073434    -0.06730956
O      -5.99492028     6.87172914    -5.99563626     0.53947766    -0.65340687     0.65640410
O      -5.92170506     1.97856377   -10.15956747     0.83702151    -0.23214058     0.16624572
O      -5.88881801     2.12212266    -5.93222222     0.53191490    -1.31284620    -0.13813817
O      -9.78419143     6.86504480    -9.78336904    -0.18748143     0.01455152     0.28834199
O      -9.87833442     6.80349594    -5.96279925     1.22768394    -0.27147068    -0.78307460
O      -3.79543658     2.40627878    -3.99397104    -1.36649019     0.07821947     0.00960275
O      -3.72741866     2.45216439    -7.98504231    -0.98709532     0.25856303    -0.23926651
O      -7.90157944     2.29385113    -3.96470027     1.65140362     0.46782275    -0.94067535
O      -7.77931706     2.50153680    -8.10409744    -0.03165199    -0.43532948     0.61919625
O      -3.88609319     6.37347430    -3.87924591    -0.08646148     0.25263819    -0.83277406
O      -3.92961257     6.33340667    -8.03862315    -0.59248239     0.63813632     0.47256694
O      -7.87851275     6.22832065    -4.05676793     0.59347550     0.59663321     0.78345722
O      -7.83237236     6.33941359    -7.97203990    -0.05702390     0.10672445     0.15570404
O      -3.96224141     4.40677671    -1.97107872     0.23847566    -0.27692883    -0.24415158
O      -3.84594261     4.52215874    -5.99396946    -0.40829741    -0.39863876    -0.93237106
O      -7.86796891     4.34382520    -9.97693193    -0.42031395     0.20477639    -0.73300635
O      -7.92793985     4.36268249    -5.93197935     0.37189661    -0.40607889    -1.23244440
O      -7.98915032     8.74323204   -10.05132358     1.01265821     0.20046201     0.15036195
O      -4.15877274     0.06070226    -5.79440146     0.37201624    -0.10995579    -0.44441346
O     -11.58730947     8.64671774    -5.96715559    -0.65900121     0.81416385     0.06180003
O      -3.94037665     8.63806814    -5.92521365     1.41985474     0.26469097    -0.45662283
O      -1.91998384     4.20636702    -3.97947396    -0.55874773    -0.96197958    -0.10992291
O      -9.75822294     4.62913136    -4.08679574    -0.10920291    -1.07782897     0.13940022
O      -5.84537587     4.25379835    -3.96271905     0.09887338     0.22235927    -0.45350101
O      -5.86866955     4.33955831    -8.08894754     0.65165342     1.06431174     0.45922929
O      -1.92153040     0.18172007    -3.95211141    -0.32062580     0.12936461    -0.15150660
O      -6.06733828     8.44987786    -7.85001064     0.55779237    -0.30886646    -1.50498047
O      -9.94100485     8.38759036    -3.95046214     0.37794425     0.05527456    -0.57024460
O      -5.97907651     0.55451895    -8.09559978     1.07596554     0.95964199     0.30390279
