# total energy = -631.07715553 eV

CRYSTAL
PRIMVEC
        0.00279571     0.02951795    -7.98606283
       -7.83802570     0.01298533    -3.99532603
       -3.92160916     8.71933433     0.00634407
PRIMCOORD
56 1
Li     -4.14388251     2.68083756    -1.91419808     0.18432100    -0.50629229    -0.18162375
Li     -4.02101706     2.19933861    -6.02313822     0.53808242     0.30374500     0.11435580
Li     -7.89340569     2.36120771    -9.95051256    -0.08494598     0.38996189    -0.08185396
Li     -7.88858041     2.12817794    -5.86454578     0.62324582     0.08599008    -0.35183936
Li     -3.97819313     6.54918349    -2.07725500     0.14165344     0.10591098     0.24944114
Li     -3.84054486     6.75705608    -5.98545055    -0.55113005    -0.93141984     0.16907264
Li     -7.95560768     6.32991962   -10.03576365     0.09612640     0.26426051     0.84608179
Li     -7.81448828     6.47529129    -5.89545513     0.12619982     0.23549305    -0.02738645
Ti     -1.95908402     2.03693786    -3.98387165    -0.26303779     0.95993030    -0.29860707
Ti     -5.88802848     6.51877332    -7.96177792     0.18068989    -0.30132296    -0.35872554
Ti     -7.82775758     4.39048199    -7.67488082    -0.57279393    -0.33522353    -3.78710770
Ti     -7.71081602     4.45392639    -3.77108994    -0.17235817    -2.21747182     0.95440830
Ti     -3.75130063     4.42550212    -7.74513024     0.56770879    -1.23119721     0.43310299
Ti     -3.79047738     4.47951911    -3.78775212     0.11327135     0.08152098    -0.49135757
Ti     -2.31278474     0.02629320    -1.89983529    -0.00825957    -0.05329292    -0.41851212
Ni     -5.90421493     2.34624941    -7.99655889     0.18017672     1.43042609    -0.03587443
Ni     -6.00087512     2.19017279    -4.00773824     1.31514034    -0.15404896    -1.10797994
Ni     -9.74192032     6.75093089    -7.96359645    -0.89881116    -0.72437394    -0.27953439
Ni     -9.81807455     6.48652232    -4.14807188     0.20065240    -0.92207232     1.00805698
Ni     -1.83365943     2.03907288    -7.97651722    -1.47189645     0.65621273     0.07121610
Ni     -5.88475944     6.57033259    -3.96535924     0.59812682     0.73016724    -0.24639259
Ni     -5.88799253     8.72220912    -6.04094086    -0.89912220    -0.62393712     0.06881998
Mo     -6.05507035     0.06281032   -10.21607234     1.36790158     0.21810221     0.01913191
Mo     -9.77429592     8.62694093    -6.32552964    -0.77478061     0.82877353    -1.04687059
O      -1.92963737     1.94535167    -1.95434285    -0.28700069    -0.46311135    -0.12531183
O      -2.03381585     1.79026235    -6.05249044     0.47562204     0.77190746     0.11263841
O      -5.92077678     6.87122316    -1.94961878     0.05359833    -0.85683781    -0.71050103
O      -5.82921527     6.87445950    -6.06845695    -0.49999709    -0.03518279     0.55073402
O      -6.01023347     2.02728384   -10.19123376     0.78390155    -0.13208398     1.23683034
O      -5.82277547     1.85429450    -5.91678518    -1.02782325     0.31013629     0.83224796
O      -9.78049934     6.84495430    -9.83761823    -0.39083678     0.89630739     0.28335557
O      -9.72828850     6.69641356    -6.05150968    -0.22400678    -0.04581969    -0.34133451
O      -3.95990885     2.49546434    -3.98459728     0.04270790    -0.00709901     0.47452417
O      -3.97872884     2.48523080    -8.00703854     0.00703977    -0.17969647    -0.14417299
O      -7.84689710     2.42097999    -3.95952190    -0.04250309    -0.02867589    -0.22251208
O      -7.85280062     2.41727182    -7.93818110     0.26785994    -0.46298662    -0.15154084
O      -3.83275623     6.51108327    -4.09857524     0.12584443    -1.01231799     0.90336640
O      -3.93167229     6.31798180    -7.94801770     0.04628490     1.52148163    -0.53562442
O      -7.94413800     6.28408371    -3.91967789     0.51611257     1.81085394    -0.96996552
O      -7.89127191     6.34969030    -7.98290003     0.81388142    -0.11894982     0.28953406
O      -3.95914217     4.56834568    -1.99035742     0.22001409    -0.32387567    -1.50065516
O      -3.87460942     4.40285975    -5.99687351    -0.07382768     0.00553117     0.26987962
O      -7.81137164     4.36672780    -9.96965263     0.14415826     0.00064271    -1.03991524
O      -7.76674036     4.35130147    -6.00377996     0.10085825     0.01474819     3.23606101
O      -8.01651174     8.68689778    -9.87807223     0.17493264     0.73737812    -0.16895132
O      -7.96637106     8.61575199    -6.05468266     0.63632214     0.06733405     0.03274963
O     -11.57728406     8.56320723    -6.04503263     0.46379259     0.55276413     0.52323883
O     -11.72695679     8.73952779   -10.06916793    -0.90732628     0.03480556    -0.11966096
O      -1.86740495     4.05130490    -4.11398941    -1.34482414     0.03791564     0.65755331
O      -9.71569070     4.48359402    -4.13774982    -0.42634601     0.56686482     0.23972861
O      -5.80287947     4.69677595    -4.08939865    -0.05793516     0.02875207     0.24195520
O      -5.85483724     4.49681057    -8.08276587    -0.41566783    -0.04498995     0.58650550
O      -2.03052413     0.14652724    -3.98446216     0.02118232    -0.29738754     0.44198927
O      -5.94242287     8.48259045    -8.03285711     0.36831729     0.31082932     0.45771527
O      -9.68699502     8.42036824    -3.95065704    -0.44961656    -0.43320192    -1.18771917
O      -5.99345474     0.59397162    -8.12333149     0.41280095    -1.41437533     0.39308526
