# total energy = -630.41044706 eV

CRYSTAL
PRIMVEC
        0.00279571     0.02951795    -7.98606283
       -7.83802570     0.01298533    -3.99532603
       -3.92160916     8.71933433     0.00634407
PRIMCOORD
56 1
Li     -3.85207652     2.14493372    -2.08064255    -0.49130035     0.00395822     0.67657805
Li     -3.99369455     2.24067406    -5.93736757    -0.02588465    -0.01011614    -0.33956602
Li     -7.99303721     2.35134877   -10.02083706     0.88464811    -0.35012563     0.19834381
Li     -7.90576622     2.32583141    -5.83619134    -0.03164947    -0.11532129    -0.51728544
Li     -3.84068327     6.72986829    -2.01600198    -0.22312489    -0.50554969     0.16332313
Li     -3.92783564     6.63094682    -5.85049203     0.19472752    -0.09325336     0.13567953
Li     -7.73149306     6.51095540   -10.04689503    -0.35335975     0.13127407     0.82645368
Li     -7.93640571     6.56424656    -5.85727727     0.32034974    -0.05220500    -0.27214128
Ti     -1.91011532     2.32912602    -4.12161302    -0.12814430     0.25451018     0.58534742
Ti     -5.73767011     6.74196158    -7.87323957    -1.30035992     0.00951918    -0.08594135
Ti     -7.79023216     4.43471295    -7.67562330     1.45317676     0.86680075    -0.16189028
Ti     -7.95523525     4.34954399    -3.66210419     0.18217970     1.37327627    -1.05554839
Ti     -3.92047399     4.45275776    -7.65089462    -0.22293684    -0.71287934    -0.91737989
Ti     -4.11627122     4.35476810    -3.68019957     0.79354443     0.73530924    -0.32369087
Ti     -5.90601801     8.72673769    -2.28470113    -0.07762246    -0.93241952    -0.45878669
Ni     -5.78603935     2.15110318    -7.91016993    -1.16277155     0.28007946    -0.62996923
Ni     -5.92071273     2.31350544    -4.00412398     0.13920055     0.02995863    -0.64275380
Ni     -9.87263150     6.26327700    -8.04262251     1.16520361     0.97897370     0.04564589
Ni     -9.82217242     6.44006973    -4.00431263     1.43622128     0.98941548     0.58786985
Ni     -1.96692973     2.19615839    -8.01870891    -0.74689007    -0.57190632     0.51186184
Ni     -5.86772662     6.48337725    -3.91562285    -1.11538226     0.46977707    -0.50125440
Ni     -2.03476885     0.04700066    -6.02596880    -0.12773076    -1.97749700     0.34054928
Mo     -9.74492796     8.72288547   -10.33034861     0.58950962    -1.43398769    -0.42886821
Mo     -5.92764675     0.11702746    -6.36717159     1.08021955    -0.75170770     0.99010028
O      -1.99842701     1.89461052    -2.24470386     0.29778443     0.75037834     1.17616341
O      -2.04243541     1.85469322    -5.95208912     0.59734728     0.52389444    -1.23762524
O      -5.74844532     6.76777310    -1.89263658    -0.57997284     0.88713622    -0.84458469
O      -5.92887662     6.81922468    -5.82849496     0.13511522     1.33263599    -1.08730574
O      -5.86097021     1.79755810    -9.82036627     0.55799850     1.16003731     1.10629138
O      -6.03107505     2.01516307    -6.03631688     1.09885018     0.85286912    -0.20681513
O      -9.73023884     6.68891652   -10.08244317     0.09192600     0.65138401     0.11075195
O      -9.82373377     6.86144372    -5.86895741    -0.39371075     0.25970743     0.10168042
O      -3.93675799     2.42434344    -4.06260534     0.14554407     0.36373079     0.82324646
O      -3.94516251     2.47356511    -7.97812411    -0.13432509    -0.21751470    -0.04657628
O      -7.84405345     2.43589911    -3.97203870    -0.02531035    -0.43677315     0.35165940
O      -7.76042957     2.39185830    -8.01294979    -0.69404704     0.71722379    -0.05500340
O      -4.04490826     6.33593476    -3.96344900     1.22684129    -0.38310488    -0.05472470
O      -3.80021392     6.51412230    -7.84972103    -1.30579105    -0.95057434    -0.45092124
O      -7.88106462     6.42566282    -3.97570716     0.18778062    -1.69904787     0.51203300
O      -7.73817435     6.35269879    -7.99330390    -0.81647685    -0.30850342     0.26615764
O      -4.03854345     4.52505576    -1.95376744     0.25162862    -0.52169311     0.45933034
O      -3.91450862     4.39911652    -5.92947706     0.26317301     0.17719109     0.62108614
O      -8.04063644     4.34864115    -9.88851399     0.56854402     0.04873074    -0.38830631
O      -8.04372981     4.43238250    -5.95031195     0.08976716    -0.26732685     0.22014905
O      -7.80411520     8.72049154    -2.09352776     0.79978486    -0.41104844     0.07736515
O      -4.13886086     0.21353000    -6.09107772    -0.10477558    -0.20425993     0.15194997
O      -7.79083326     0.21837964    -6.01906971    -0.10391708    -1.12398850    -0.28195624
O     -11.45318024     8.60812777   -10.27167756    -2.20366674     0.02449446     1.13683769
O      -1.99006485     4.33378524    -3.97938031    -0.53438981    -0.57425757    -0.14108745
O      -2.01579165     4.04954579    -7.98531018     0.36216375     0.53664347    -0.19989027
O      -5.94789491     4.25349257    -4.08110442    -1.26825866    -0.49489173     0.49495727
O      -5.87028630     4.72995833    -7.76984498     0.66353796    -0.26112958    -0.57979888
O      -1.85110771     0.22170581    -4.18465521    -0.21993467     0.30102514     1.08703727
O      -5.88285138     8.66231279    -7.95775448     0.03586555     0.07203965     0.43134691
O      -5.75903415     0.39774783    -4.09321755    -0.11770192     0.09200464    -0.45048068
O      -9.67918301     8.11450119    -8.01060799    -1.10047870    -0.19294812    -1.69267356
