# total energy = -631.00623141 eV

CRYSTAL
PRIMVEC
        0.00279571     0.02951795    -7.98606283
       -7.83802570     0.01298533    -3.99532603
       -3.92160916     8.71933433     0.00634407
PRIMCOORD
56 1
Li     -3.99890303     2.27713068    -2.07213861     0.21819905    -0.02841785     0.38615554
Li     -3.95457241     2.42521564    -6.06616345    -0.08757184    -0.05657160     0.41000643
Li     -7.84375374     2.36842508    -9.94015912     0.12180101    -0.05377523    -0.21538338
Li     -7.83599562     2.20222535    -6.04156733     0.06323555     0.12885255     0.64266054
Li     -3.89612243     6.45427053    -1.93769746    -0.28585725    -0.13469582     0.05299976
Li     -4.09146210     6.27006724    -5.90052385     0.34484552     0.22378126     0.12531874
Li     -7.84485212     6.37155294    -9.93900595    -0.36476818     0.15870328     0.16039723
Li     -7.85393069     6.62480816    -5.77323701    -0.51574315    -0.40612400    -0.77784650
Ti     -1.93480434     2.24598195    -4.01512559    -0.14922362    -1.54334889    -0.05223590
Ti     -5.92290824     6.74963801    -7.99334930     0.59711527    -1.68735205     0.79483660
Ti     -7.64748552     4.39077369    -7.79466529    -1.51301015    -0.25313163     2.21845458
Ti     -7.76195192     4.39886292    -3.79405986     0.40238901    -0.84969691    -0.68797854
Ti     -3.62620776     4.42054630    -7.85733308    -0.66297835     0.30519631     1.20092455
Ti     -4.00196777     4.32550626    -3.78309032     0.86561778     0.87167612     0.51969113
Ti     -6.16236928     8.63768241    -2.16152916     0.25583678     0.98343395    -0.93961676
Ni     -5.74436873     2.35281425    -8.10636245    -0.52169147    -0.08100148     0.40911432
Ni     -5.94482480     2.18308235    -4.06244670     0.52439564    -0.16411122    -0.63862644
Ni     -9.89684212     6.59561344    -7.88364890     0.60221275    -0.14550056     0.97115217
Ni     -9.70451904     6.70468562    -3.87963356    -0.94581658    -0.54200240    -0.16293501
Ni     -1.98330265     2.03487981    -7.96360669     0.98850819     0.32940063    -0.04215960
Ni     -5.99405378     6.58762578    -4.02216316     2.09397091     0.50060676     0.53998336
Ni     -5.96944357     8.69599649    -5.98840831     0.18000358    -0.21327984     1.44875592
Mo     -9.97399348     8.70366861   -10.16775865    -0.05863083     0.16401757    -0.10988277
Mo     -9.78854736     8.69573566    -6.32760707     0.66987249    -0.18310721    -1.18012519
O      -2.10285511     1.81455693    -1.91031403     1.17422164     0.18110675    -0.19596298
O      -1.97368338     1.79547583    -5.90012909    -0.14970175     0.66731833    -1.55231145
O      -5.87498733     6.73792480    -1.93934171    -0.40886848    -0.10698306    -0.73868672
O      -5.96895333     6.88720955    -5.95012237     0.28300953    -0.83650407     0.51503652
O      -5.83438481     2.01502820   -10.12246549    -0.63206698     0.10434777     0.37488507
O      -5.87295066     1.94540213    -6.03515872     0.16986334     0.13811536     0.38859679
O      -9.77502499     6.85972573    -9.77146359    -0.18213410     0.00305798    -0.24885439
O      -9.89610855     6.78215461    -5.86310293     1.11477607     0.19135650    -0.81487480
O      -4.01472288     2.38036639    -4.08173148     0.98131263    -0.01730576     0.43924163
O      -3.77970723     2.50300611    -7.99631728    -0.86389949    -0.55599582    -0.10993411
O      -7.87256023     2.32795794    -3.90652611    -0.47622938     0.92069124    -0.47783496
O      -7.77780232     2.39193606    -7.95963033    -0.01037488     0.42105501    -0.70647042
O      -3.91704562     6.35452792    -3.85984895    -0.44509948    -0.69974537    -1.01042169
O      -3.98895564     6.35427441    -7.91437673    -0.03613625     0.47010213    -0.12500877
O      -7.80851300     6.40213182    -3.92509356    -0.32531095    -0.37370557     0.20671292
O      -7.89037808     6.36261036    -7.95933826     0.45506693    -0.23982239     0.01203374
O      -4.05633269     4.34939176    -1.99117647     0.04446625     0.01798589    -0.39084035
O      -3.78192892     4.41992137    -6.03770487    -0.00473076    -0.19574412    -0.32210465
O      -7.87295301     4.46047797    -9.98507085     0.00407142    -0.57303479    -0.00811533
O      -7.96612770     4.36480056    -5.99671080     0.50282061     0.13263913    -0.80337583
O      -7.94624568     8.70118691    -2.17446352     0.49604319    -0.52268409     0.36070944
O      -7.97207874     8.58162086    -5.99121722     0.58694028     0.39247719    -0.12374062
O     -11.52596803     8.68006907    -6.17934079    -1.84282638     0.27560325     0.54440566
O     -11.71762211     8.70302168   -10.01595514    -0.08875794    -0.01934904    -0.04692137
O      -1.95824246     4.00472177    -3.82558385    -0.70121982     1.67147601    -0.69092402
O      -9.67097426     4.67044523    -4.04928165     0.15196412     0.24000700    -0.03072229
O      -5.82030933     4.12091041    -4.24779354    -1.83239518     0.11561548     0.63036041
O      -5.83319101     4.29149670    -7.87399154     0.73887937     0.16104434    -0.50986413
O      -1.82453968     0.23817631    -3.99730644    -0.67997034    -0.89260902     0.54466687
O      -5.81349910     8.49710860    -7.94588685    -0.38450941     1.76509924    -0.81831227
O      -5.86249598     0.28073996    -4.02913208    -0.47040664    -0.42970283     0.10258549
O      -5.72531769     0.56263458    -8.20757108    -0.02351915    -0.71052050     0.58121356
