# total energy = -630.81606706 eV

CRYSTAL
PRIMVEC
        0.00285542     0.02004370    -7.95977623
       -7.82940539     0.00763210    -3.98158109
       -3.91729101     8.74642787     0.01461334
PRIMCOORD
56 1
Li     -3.69416118     2.13501605    -1.93544073    -0.97424364     0.01649262     0.29037995
Li     -3.79971000     2.44337857    -5.85087718    -0.61344983    -0.16937650    -1.17009033
Li     -7.75683182     2.49696877    -9.96950307    -0.09583222    -0.31271776     0.32528998
Li     -7.86612369     1.97555313    -5.95934093     0.76857767     0.17120600     0.11442727
Li     -3.99702041     6.51148784    -2.06695392     0.83529470     0.16358409     0.09717331
Li     -3.92963176     6.42127818    -5.99394700     0.25036347     0.01068085     0.62438931
Li     -7.85454400     6.57034209    -9.83941305    -0.13991063    -0.12261076    -0.48396292
Li     -7.93511087     6.41580739    -5.88387146     0.30679385     0.26842380     0.02959530
Ti     -1.98397036     2.12855877    -4.06075029     2.00055383     0.85112244    -0.06236277
Ti     -5.79647642     6.58752566    -7.93600962    -1.58224894     1.32482131    -0.23863335
Ti     -7.85731198     4.36869443    -7.73640203    -0.49958571     0.21027330     0.89160758
Ti     -7.99156922     4.47898521    -3.71607966     1.81252476    -1.08296312    -0.22629704
Ti     -3.86948883     4.32835407    -7.75458085     0.14527356    -0.05834644     0.49372042
Ti     -4.06509267     4.30719650    -3.74750069     0.33404802     0.84609948    -0.59855165
Ti     -6.11044982     8.64940364    -2.09499582    -0.74404800     0.12373603     1.29130228
Ni     -5.77969358     2.33602282    -8.02853934    -0.96455077     1.79982518     0.75223334
Ni     -5.87019708     2.08629643    -4.03283485    -0.36227767     0.11021228     0.63407391
Ni     -9.82299876     6.69091693    -7.85170488     0.65247181    -0.55912171     0.12654518
Ni     -9.79975528     6.63395633    -3.95493555     0.07901641     0.48719411     0.26188376
Ni     -1.75930221     2.04038016    -7.94322241    -1.78028450    -0.28054079     0.22576217
Ni     -5.84619086     6.55480772    -4.06411253    -0.06484621    -0.13806661     1.06588678
Ni     -5.98211171     8.71006741    -5.97962215     1.05015084     0.06223534     0.32644868
Mo     -6.08538743     0.10979715   -10.11701808     0.60617003    -1.00094501    -1.56963065
Mo     -9.65546411     8.74763757    -6.28727662    -2.64205706    -0.03055503    -0.78068432
O      -1.87830006     1.85010786    -1.92682820     0.01781925    -0.27089791    -0.22569688
O      -1.91220276     1.84638789    -6.02247780    -0.21685072    -0.42879999     0.04960294
O      -5.83005550     6.74196799    -2.01855840    -0.48820004     0.27585712     0.00764059
O      -5.98264941     6.88163972    -5.93682289     0.24051702    -0.40355143    -0.40046694
O      -5.79628622     1.99891192    -9.99540903    -0.37941052     0.72371545    -1.00422785
O      -5.84534244     2.00806333    -5.89907148     0.26279891    -0.77033374    -0.20277939
O      -9.74979953     7.00995698    -9.70994963    -0.38970316    -0.00612301    -0.14938643
O      -9.84572831     6.82956091    -5.90727264     1.20640555    -0.15541627    -0.82908890
O      -3.85958947     2.27528841    -4.02469868    -1.08273583     0.78245354     0.93548433
O      -3.82945879     2.45708371    -7.96983017     0.46635168    -0.48313792     0.02800488
O      -7.83847681     2.43459211    -3.89834202     1.25712666     0.25487414    -0.79324753
O      -7.83060905     2.44240262    -7.92948254     0.60432676    -0.56297956    -0.16070468
O      -3.77824548     6.28435518    -4.09373604    -1.03788300     0.34511587     0.65716112
O      -3.96437397     6.38045609    -7.93636813     0.53229925     0.20264677     0.15156560
O      -7.84881536     6.40318395    -3.84839738     0.05105081     0.63617323    -0.50674716
O      -7.84132642     6.31504927    -8.03836492     0.08741764     0.10200732     1.00736450
O      -3.82238166     4.58172893    -2.03010293     0.12443245    -0.89133980     0.31438286
O      -3.92917467     4.44031930    -5.97084540     0.31195340    -0.26796390    -0.34391418
O      -7.86176494     4.32149633    -9.92582653     0.43481647     0.62090324     0.27350034
O      -7.85572552     4.57816835    -5.96634297    -0.13018073    -0.82012438    -0.54385435
O      -4.03511808     0.06952857    -9.94927024     1.42974325    -0.13028545    -0.18712083
O      -7.87000880     8.73516144    -5.98519483    -0.27268958    -0.11383621    -0.32954948
O     -11.48009499     8.64853518    -6.04810045    -0.19843967     0.75843216     0.11807763
O      -3.92894058     8.68855298    -6.12183471    -0.24030950     0.36253496     0.36270422
O      -1.92831500     4.04744472    -4.14455410    -0.88821411    -0.61597265     0.67745218
O      -9.77429068     4.76601515   -11.83559286    -1.67426283     0.36408234    -0.63758548
O      -5.92145971     4.59402591    -3.97505464     0.36039526    -0.23855302    -0.26526800
O      -5.81001046     4.30099134    -7.93263676    -0.36620260     0.44880780    -0.51475596
O      -1.92991687     0.11687620    -3.92165118     0.02504700     0.02938446    -1.11577243
O      -5.94434099     8.45854012    -7.99092009     0.28320939    -0.76600638    -0.62567472
O      -9.77503223     8.68549460    -4.02299505     0.09638843    -0.28150091     0.68815552
O      -6.02546169     0.60909530    -8.14002211     1.09620654    -1.55383818     1.23424862
