# total energy = -630.90539118 eV

CRYSTAL
PRIMVEC
        0.00279571     0.02951795    -7.98606283
       -7.83802570     0.01298533    -3.99532603
       -3.92160916     8.71933433     0.00634407
PRIMCOORD
56 1
Li     -3.98806077     2.09323367    -1.96345474     0.17389006     0.18857427     0.00645049
Li     -4.01807071     1.88186100    -6.01160472     0.49655634     0.22224996    -0.00964498
Li     -7.83427376     2.17275884   -10.05492990     0.33002062     0.17046449     0.20461548
Li     -7.76299282     2.19971898    -6.09811576     0.23306535     0.14424659     0.58189678
Li     -3.99422775     6.36228743    -1.93075798     0.48713757     0.15876087    -0.05862430
Li     -4.08042853     6.43578736    -6.00775409     0.76392599    -0.33714352     0.50980991
Li     -7.88359731     6.40240193    -9.84212842     0.32459600     0.03748597    -0.53323150
Li     -7.94803314     6.50777891    -5.91371437     0.53792703     0.02029002     0.25608360
Ti     -1.93897322     2.38720455    -4.07379755     0.04269341    -1.24805254    -0.52417171
Ti     -5.82780868     7.00736940    -8.01467192     0.28586188    -3.16866443     0.71292843
Ti     -7.75519499     4.49945688    -7.75738833     0.93813717    -0.66655185    -0.60054769
Ti     -7.89361698     4.36540290    -3.73090928    -0.20343077     0.95635287     0.99019658
Ti     -3.89911604     4.23768554    -7.78252733     0.03521188     0.53979990     0.01856982
Ti     -4.06019778     4.40711924    -3.81693874     0.25971304     0.24056128    -0.03269535
Ti     -5.95421341     8.72366498    -2.28484788    -0.05403103    -0.08796590     0.37195388
Ni     -5.90266842     2.31556628    -8.09773360     0.70236667    -0.10605588     0.71000430
Ni     -5.90585866     2.30043355    -3.99649544     0.12747902     0.14959414    -0.81354428
Ni     -9.85552174     6.48669705    -7.87324102     0.43706930     0.26361662     0.30963514
Ni     -9.84309347     6.60729840    -3.84507505     0.07997390    -0.30976445    -0.85820021
Ni     -1.89684318     2.10110165    -8.00715343    -0.11043004    -0.67291488    -0.02921291
Ni     -5.94114491     6.56296991    -3.96458050     0.36703329     0.00445787    -0.41550371
Ni     -5.82807107     8.68531294    -5.91921533    -0.31022260    -1.10157738     0.15496601
Mo     -9.80901733     8.63837427   -10.19368969     0.84148942     0.97870209    -1.12765122
Mo     -9.86088754     8.57422686    -6.26965834     0.38209051     0.62922777    -0.46902936
O      -1.80317293     1.86725412    -2.03349457    -0.75386047     0.51653646    -0.58620587
O      -1.88240023     1.80556779    -5.99146364    -0.56717355     0.08520645     0.29674418
O      -5.84269376     6.78432180    -1.99578376    -0.67010564     0.16705277     0.41572550
O      -5.86668698     6.75741228    -5.84817961    -0.61525994     1.59420320    -0.94344458
O      -5.91530361     2.10241633    -9.98427470     0.33585053    -0.52341900    -0.98273120
O      -5.83332339     1.99187573    -6.07643601    -1.05554075    -0.86533186     0.26819397
O      -9.75335870     6.76056225    -9.93572154    -0.14868781     0.21402046     0.72001083
O      -9.88075752     6.64456153    -5.76992979     0.05103345     1.57240374    -0.96014643
O      -3.95683909     2.41187599    -3.98222525     0.90673505     0.52577913    -0.17495687
O      -3.99290008     2.32899459    -8.00327559     0.42798378     0.02303365    -0.08658091
O      -7.80016515     2.47247749    -4.07050340     0.78027370    -0.78003612     0.36102427
O      -7.78221829     2.54148057    -8.06389925    -0.97495022    -0.89244650     0.48114628
O      -3.86702228     6.43270254    -4.04623159    -0.26034210    -1.02673396     0.58479118
O      -3.98898352     6.36525955    -7.93277463    -0.03764779     0.23065384    -0.06794711
O      -7.96697548     6.39712960    -3.98258615     0.17554250    -0.69166594     0.66750706
O      -7.69993680     6.45783185    -7.95711653    -0.63143372    -0.09552554     0.24789373
O      -3.73909524     4.48787662    -2.05982351    -0.30797139    -0.37659199    -0.68256816
O      -3.91408583     4.49862948    -6.05156798     0.29717385    -0.24448770     0.65812548
O      -7.90720533     4.48743919    -9.90326662     0.40332641     0.11558205    -2.12721870
O      -7.97173849     4.50864850    -6.01966186    -0.04066348    -0.11861080    -0.12399506
O      -3.92928050     0.07828343    -2.03328443    -0.45250928    -0.36623335     0.06609567
O      -8.02092544     8.65673536    -5.98092106    -1.44261795    -0.39950226    -0.37826952
O      -3.88665547     8.59459720    -1.99015370     1.11616772     0.35977408    -0.65259525
O      -7.58438654     0.04317601    -9.92465389    -2.12204096    -0.32281226    -0.08401717
O      -1.86082537     4.14298208    -4.35840292    -1.34751286     1.18942831     1.44236196
O      -1.93102464     3.89657954    -8.01775324    -0.45612696     0.46522354     0.09615134
O      -5.93036400     4.44583575    -4.05410485     0.03485962    -0.53192171     0.30829767
O      -5.80980755     4.20183468    -8.06788651    -0.79402883     0.25103248     0.07438369
O      -2.04274278     0.13891336    -4.06786989     0.43697971     0.29959052    -0.50060267
O      -5.77347854     8.73555455    -7.95766854    -0.07154225     2.49595377     0.28285075
O      -6.02104669     0.42765790    -4.02964867     0.68212984    -0.33784900     0.38045645
O      -5.91425671     0.44678853    -8.14457208     0.26249907    -0.30883904     1.72441196
