# total energy = -631.08007944 eV

CRYSTAL
PRIMVEC
        0.00285542     0.02004370    -7.95977623
       -7.82940539     0.00763210    -3.98158109
       -3.91729101     8.74642787     0.01461334
PRIMCOORD
56 1
Li     -3.77058827     2.33205695    -1.96361262    -0.16853950    -0.22646483     0.30510030
Li     -3.93032235     2.14143747    -5.88147912    -0.20137297     0.02161218    -0.92098467
Li     -7.80214061     2.27641798    -9.97760678     0.04364694     0.35936411    -0.18461664
Li     -7.65133467     2.29537400    -5.97156233    -1.01660057     0.21216662     0.46765696
Li     -3.83052500     6.38557285    -1.75714451    -0.24389275    -0.11278944    -1.02921336
Li     -3.96481095     6.39264587    -5.89837859     0.41516107     0.08830590     0.22114834
Li     -7.86777562     6.46628408    -9.86664877     0.01508470     0.18200127    -0.24651340
Li     -7.71722411     6.39580717    -5.82496565    -0.94953864     0.22401948    -0.03498579
Ti     -1.93484116     2.14164774    -4.06340710     0.12181116     0.33306088     0.02764071
Ti     -5.93742914     6.60499862    -7.89914887     0.99168310    -1.06766824    -0.39012640
Ti     -7.82788383     4.38559954    -7.71319647    -0.84215965    -0.25126907     0.08649984
Ti     -7.92476881     4.46755342    -3.74792364     0.60538275    -1.14193281     1.03782521
Ti     -3.77995169     4.34587338    -7.69438724    -0.33103792    -1.26844705     0.72458142
Ti     -4.02285719     4.28757652    -3.77658256     0.39492799     1.32525673     0.01871020
Ti     -2.03906300     0.00609584    -2.00568122    -1.19341786     0.82758985    -0.46449264
Ni     -5.89518059     2.38042213    -8.01880644     1.58470038    -0.44680889     0.13051626
Ni     -5.91339282     2.35591821    -4.03023525    -0.13821329    -0.58432741     0.28468021
Ni     -9.82344805     6.66071058    -7.91145254    -0.22706734    -0.18582790     0.01717663
Ni     -9.75644924     6.54912482    -4.01738324     0.30678416     0.10839264     0.22336604
Ni     -1.97932511     1.97908847    -7.99975383     1.40799261     1.01709672     0.84250773
Ni     -5.82918218     6.50232207    -3.97893687     0.04626956     0.38419567     0.76798105
Ni     -5.98540128     8.72947211    -5.91642141     0.49910110    -0.66087984    -0.15751097
Mo     -5.95598854     0.14477536   -10.20569559     0.55025612    -0.35291539    -0.78989614
Mo     -9.84962569     8.74119742    -6.35342576     1.33235472    -0.66360777     0.06047043
O      -1.74233459     1.98156126    -1.87037191    -1.09463959    -1.08919872    -1.26920175
O      -1.88494368     1.82609727    -6.02900645    -0.88267748    -0.19308017     0.18711637
O      -5.77715516     6.90025201    -1.94559675     0.06161195    -2.07799693    -0.57013555
O      -5.91752176     6.84907585    -5.88653256     0.22463402     0.16964574     0.25791281
O      -5.71009738     2.05039770   -10.08535231    -0.95704361    -0.08615018     0.00062650
O      -5.87825074     1.97295726    -5.87873222     0.21966455    -0.27755235    -0.39324038
O      -9.74696845     6.96006437    -9.82075556    -0.15392082    -0.22799910     0.61143179
O      -9.80643547     6.78614484    -6.02057651     0.19515592     0.35039825     0.06520234
O      -4.00934373     2.32562579    -4.05549444     1.48460387     0.11611471     0.85894705
O      -3.80323042     2.40731052    -7.96336045    -0.95151667     0.16878358    -0.01499432
O      -7.84951518     2.54916258    -3.98068843     0.20748697    -1.49367345     0.28406699
O      -7.75367134     2.43414141    -7.98319452    -0.89595480    -0.24420927    -0.21288787
O      -3.91803133     6.33891817    -3.94380181     0.48608910    -0.61454635    -0.17094790
O      -3.97984907     6.24664495    -7.86560762     0.17162430     0.75223487     0.02590176
O      -7.73945705     6.35935695    -3.86527969    -0.10956781     0.94737815    -0.83297543
O      -7.82069500     6.39553031    -7.92893276    -0.60971530    -0.52139743     0.38104870
O      -3.71915546     4.29207596    -2.04222311    -0.60567036     0.13247920     0.23200632
O      -3.82898143     4.24095718    -5.90837215     0.33760394     0.58909391    -0.72155652
O      -7.82227662     4.48266528    -9.92447184    -0.42475333    -0.29669000     0.32492498
O      -8.02008678     4.34241586    -5.95877564     1.07110792     0.72962467    -0.78357102
O      -3.86112421     0.08883956    -9.85738040     0.17949475     0.19535826    -0.20408258
O      -8.05545306     8.75054343    -6.01546515     0.29202836     0.14524956    -0.05461126
O      -7.65127700     0.02982707    -5.88816787    -0.76436197    -0.06634928    -0.01899459
O      -7.69505971     0.10893394   -10.05888520    -0.48079645     0.27626553    -0.04275878
O      -1.93373423     4.03004221    -3.97689702    -0.37466340    -0.42553413    -0.61473708
O      -9.74469612     4.67732226    -4.11513426    -1.34374367     0.47490631     0.62499537
O      -5.94503054     4.31986976    -3.98404744     0.86325613     0.61592617    -0.35093660
O      -5.85187023     4.33819361    -7.90973291     0.17480076     0.10589501    -0.13500778
O      -1.99077147     0.16698364    -3.99839884     0.41772609     0.67966043     0.51407266
O      -5.84117236     8.35417525    -7.93520867     0.05653977     2.52935073     0.62534162
O      -9.70281968     8.39145856    -3.95551797     0.04594827     0.24895447    -0.35093492
O      -5.94940536     0.45771782    -8.15859045     0.17255056     1.00958751     0.82528412
