# total energy = -630.59376719 eV

CRYSTAL
PRIMVEC
        0.00279571     0.02951795    -7.98606283
       -7.83802570     0.01298533    -3.99532603
       -3.92160916     8.71933433     0.00634407
PRIMCOORD
56 1
Li     -3.95534954     2.14161637    -1.85771766     0.06739268     0.14857571    -0.28022083
Li     -3.89526575     2.25556751    -5.88381228     0.01353855     0.20446267    -1.14559997
Li     -7.84009126     2.08967448   -10.06764692     0.31637254     0.22307902     0.62193027
Li     -7.98416056     2.21798138    -5.81872036     0.89349682     0.27346681    -0.48206460
Li     -3.93249228     6.49154974    -1.90958636    -0.10697432    -0.03807601    -1.25854676
Li     -4.02134707     6.53054200    -5.83280565     0.78378270    -0.14739199    -0.01166790
Li     -7.79624444     6.52499503    -9.99537155    -0.58038486    -0.03697172     0.29693207
Li     -7.96190574     6.31133385    -5.80514438     0.59486220     0.28732416    -0.12780779
Ti     -2.01120098     2.15930959    -3.92359640     0.31723128     0.81220604    -1.69470250
Ti     -5.88657302     6.62995182    -7.92470443    -0.04380754     0.80898384    -0.23348513
Ti     -7.97893886     4.39989721    -7.74157157     0.50739073    -1.15155031     0.58533346
Ti     -7.92639723     4.37293145    -3.69286703     0.10646890     0.31477830     0.16162791
Ti     -4.02749744     4.35721024    -7.78549056     1.99584366    -0.28661847     0.76120142
Ti     -4.05928989     4.37978258    -3.83422645    -0.72315649     0.76819386    -1.32488359
Ti     -5.75522352     8.71748262    -2.12721355     0.05938951    -1.13725037     0.50590219
Ni     -5.86674196     2.34236078    -8.14531933    -0.15917013     0.58619693     0.77341178
Ni     -5.90962379     2.24272866    -4.13388581     0.54491006    -0.18803385     1.63098350
Ni     -9.78230126     6.50178606    -7.84779011    -1.01434919     0.54658849    -0.45441779
Ni     -9.87445995     6.47562956    -3.99746835     0.53335555    -0.70982595    -0.03846994
Ni     -1.93182961     2.30391152    -7.87005347    -0.58573686     0.09744760    -0.86252484
Ni     -5.90286358     6.68421473    -4.01376514    -0.50060350    -0.76425719     0.41903658
Ni     -1.82388203     0.05646612    -5.98508016    -0.64720680    -1.04383026    -1.32356200
Mo     -9.81040720     8.70230242   -10.30572496     0.38727419     0.15798405     0.25260566
Mo     -9.69780008     8.70235111    -6.23902488     0.57270481    -0.04758191    -2.08775464
O      -2.05584028     2.02247376    -2.06920346     0.65328581    -1.18451594     0.80327192
O      -1.88554053     1.87547157    -6.09501638    -0.42021709    -0.26561614     0.93870984
O      -5.96765631     6.80781523    -1.99625937     0.55908601     0.08742249    -0.35890162
O      -5.86704586     6.90422996    -5.93150553     0.17070956    -0.19592379    -0.72840604
O      -5.81199451     1.96739564   -10.19171881    -0.61696761     0.07579373     0.22427465
O      -5.86126033     1.92077150    -5.91719717    -0.32144753    -0.40914190    -0.16597401
O      -9.80031278     6.90094692    -9.76715634     0.01613777    -0.25168910     0.22251243
O      -9.84405680     6.75372883    -5.97578043    -0.06352303    -0.03282658    -0.30793056
O      -3.93367310     2.39309004    -4.08972769    -0.51412749    -0.58140010     0.25086369
O      -3.87788304     2.44465020    -7.88068713     0.11347579    -0.46733513    -0.66456285
O      -7.82905583     2.42680537    -3.92411689    -0.02517080    -0.09676144    -0.70403535
O      -7.86427920     2.40569950    -8.00829162    -0.31957376     0.27937296     0.19958048
O      -3.89801344     6.36493024    -3.94699378     0.81203729    -0.01426545     0.23302291
O      -3.91408047     6.31163525    -8.14536648    -1.24217654    -0.26323918     1.69183144
O      -7.94476474     6.31659612    -3.90624876    -0.37258400     0.89453210    -0.51796838
O      -7.84200858     6.33874695    -7.95977925     0.26763720     0.09999912     0.38167803
O      -3.90818967     4.21227800    -2.14968033     0.06879626     0.05570315     2.62280340
O      -3.89077103     4.38964823    -6.02127415     0.03129633     0.33631598     0.16039491
O      -8.00108407     4.41781683    -9.92096015     0.82436182    -0.02883241     0.23017957
O      -7.64046530     4.38443353    -5.96640163    -1.05157946    -0.13790318    -1.32992652
O      -4.00367168     0.05240427   -10.01935598    -1.00717884    -0.01864258    -0.42891436
O      -7.95780111     8.52288508    -6.02879150    -0.40158785     0.70290317    -0.11560808
O     -11.74927189     8.72263629    -6.12883668    -0.60506121     0.14242417    -0.06360801
O      -7.70618416     0.04551888    -9.87804531     1.14182050     0.12494408    -0.41917105
O      -2.02991561     4.11213454    -4.01422027     0.74769759    -0.06645705     0.19492261
O      -1.98469145     4.40737795    -0.07578700    -0.02610293     0.64897884    -0.08285208
O      -5.94586593     4.77792750    -3.99269659    -0.03992592    -0.22253151    -0.01979368
O      -5.85202722     4.29662838    -7.98846320    -1.75672144     0.54445339    -0.79308590
O      -2.06603237     0.10839166    -4.12362446     0.12786982     0.70659593     2.01541216
O      -5.70564648     8.42791990    -8.07152075    -0.46511624     0.65629307     0.60407197
O     -10.05655990     8.51064578    -4.15265373     0.79808801     0.00723900     1.00352293
O      -5.79790884     0.57787878    -8.03515372    -0.31674277    -1.03682292     0.31442412
