# total energy = -630.76341258 eV

CRYSTAL
PRIMVEC
        0.00285542     0.02004370    -7.95977623
       -7.82940539     0.00763210    -3.98158109
       -3.91729101     8.74642787     0.01461334
PRIMCOORD
56 1
Li     -3.91967070     2.03408082    -1.85325878    -0.01172388     0.85262197    -0.23303581
Li     -4.04421697     2.08837277    -5.87829196     0.46445212     0.06744428    -0.53715643
Li     -7.87585927     2.44649269    -9.99827797    -0.13189133    -0.29763698    -0.31833837
Li     -7.77042334     2.24506993    -5.96735586    -0.26716562    -0.26118244     0.56427243
Li     -3.91889020     6.40001576    -1.78930515     0.23006776     0.13233316    -0.93316874
Li     -3.81835233     6.40405763    -5.80232541    -0.16144843     0.01370479    -0.20308684
Li     -7.74081603     6.35583048    -9.81905685    -0.65796625     0.27547557    -0.35246293
Li     -7.70161803     6.51226173    -5.81664458    -0.37068514     0.13562047    -0.93373178
Ti     -1.97682859     2.13817175    -4.09274608    -0.79249110     0.46020329    -0.24861354
Ti     -5.88108712     6.72300513    -8.00463001     0.42262956    -0.51340054     1.10605393
Ti     -7.79200474     4.26672499    -7.67370527    -1.00903261     1.54340812     0.78952098
Ti     -7.89415810     4.46027635    -3.79181198    -0.02372721    -0.98844571    -1.34457385
Ti     -3.88090630     4.29212074    -7.66220775    -0.16434875     0.38286394    -0.65707649
Ti     -3.96752262     4.32323229    -3.71227809     0.90409270     0.30861087     2.15700602
Ti     -2.09812791     0.07306334    -2.03312006     0.74985846    -2.03704664    -0.24565437
Ni     -5.93007889     2.36425631    -8.06589228     0.61902790    -0.45083887     0.95291618
Ni     -5.89353673     2.47228867    -3.97246846    -0.52294482    -1.72990644    -0.78351851
Ni     -9.73299813     6.59057567    -7.91582528    -0.24788635    -0.42998911     1.95053893
Ni     -9.80514358     6.43711037    -4.06983761     0.13292669     0.70939534     0.11136407
Ni     -2.04509533     2.12759239    -8.07014208     0.91964817     0.17865084     1.39662844
Ni     -5.85506500     6.53670920    -3.94990311     0.42717231    -0.28361717    -0.09885035
Ni     -5.78312484     8.70645885    -5.88126649    -0.64123030    -0.57443909    -1.00567038
Mo     -5.96074531     0.18046504   -10.23615476    -1.03516085    -2.52231685    -0.02368574
Mo     -9.76969825     8.72999847    -6.31272737    -2.07201358    -1.65376548    -0.07299156
O      -1.91079610     1.90907342    -2.01846564     0.02742801     1.05672922     0.30232475
O      -1.96319955     1.86475824    -6.07827686    -0.04060261    -0.43199399     0.74831221
O      -5.88293773     6.76120495    -1.98710398    -0.20696086     0.00576040     0.01910881
O      -5.77131593     6.80042711    -5.90959636    -0.00996705     0.93925844     1.06966890
O      -5.93025724     2.04400380   -10.03733271     0.67027137     1.25950304    -0.03908482
O      -5.90907219     1.84461483    -5.89583098    -0.02155638     1.12944084     0.52775891
O      -9.61356402     7.12782332    -9.67176138    -0.82625959    -0.74789490    -0.40250950
O      -9.80567175     6.75364454    -5.95324869     0.59275966     0.33991226    -0.79505783
O      -3.95111433     2.30933961    -3.97163160     0.19359260     0.34875429    -0.05417147
O      -3.96177476     2.37784566    -7.86403439     0.19179062    -0.33713985    -0.59113492
O      -7.86379754     2.45765394    -4.04458913     0.06657050     0.54573640     0.33482570
O      -7.85428364     2.29716124    -7.98408092    -0.07845547     1.10869352    -0.07749138
O      -3.81990515     6.23492082    -3.83094275     0.19743962     0.78677753    -0.90524026
O      -3.97306548     6.30797628    -7.88402570     0.10871634    -0.29844515     0.09520570
O      -7.82864343     6.37803304    -4.04272536    -0.02480799    -0.01588721     1.09630631
O      -7.81612883     6.38751634    -7.80770068     0.31095386    -1.00740956    -0.96695537
O      -3.96746775     4.22814598    -1.90344523    -0.10988171     0.05961547    -1.46191980
O      -3.80899476     4.32921436    -5.92432439     0.19379586     0.07473573     0.96456172
O      -7.81482262     4.39976868   -10.01462543    -0.20293485     0.17584516     1.79900601
O      -7.87441563     4.42863881    -5.93218059     0.31950937    -0.50153443    -0.73803016
O      -3.89875781     0.11480135    -9.88920071    -0.70713413     0.67423647     0.09856325
O      -7.99355079     8.66179547    -6.21192803     0.88623819    -0.00323795     0.88880776
O     -11.61901764     8.54204466    -5.87511783     0.40937541     0.83994278    -0.80318525
O      -7.73825817     0.11210986    -9.99304999     0.73779571    -0.18027397    -0.33528100
O      -1.94956855     4.09158290    -3.89148505     0.31447452    -0.64293361    -0.71348116
O      -9.85051744     4.55668878    -4.13862113     0.98008726     0.29197370     0.51516286
O      -5.83993766     4.35869599    -4.01898267    -1.22669819     0.78194609    -0.32325911
O      -5.88083814     4.26621912    -7.80849393    -0.07071538     0.08095391    -0.75900277
O      -2.06562671     0.19423003    -3.95786181     0.56964541    -0.02672355    -0.27637789
O      -5.75672334     8.49677140    -7.91845140    -0.30384477     0.66047570    -0.28907972
O      -9.72468499     8.54686210    -4.00973008     0.16688778    -0.50804124     0.10403041
O      -6.00038631     0.56130336    -8.08151066     0.30547036    -0.37606628    -0.25340618
