# total energy = -631.66184719 eV

CRYSTAL
PRIMVEC
        0.00285542     0.02004370    -7.95977623
       -7.82940539     0.00763210    -3.98158109
       -3.91729101     8.74642787     0.01461334
PRIMCOORD
56 1
Li     -4.12658508     2.14161902    -1.78619612     1.05625065     0.17578280    -0.75293727
Li     -4.14744178     2.31593941    -5.90297019     1.09717929     0.11120250    -0.26276868
Li     -7.88326958     2.32480639    -9.89696380     0.15384385     0.15999481    -0.48749909
Li     -7.77303699     2.14240367    -5.81925286    -0.45914859    -0.07168813    -0.29932402
Li     -3.83078498     6.71007922    -1.89368247    -0.74336129    -0.35907666    -0.32552935
Li     -3.95510985     6.44108378    -5.81205424     0.59298333    -0.18935182    -0.46666426
Li     -7.94329568     6.44839919    -9.76401258     0.01443165    -0.27093623    -0.50551699
Li     -7.79068102     6.60528498    -5.86320454     0.06384431    -0.10428732    -0.02715081
Ti     -1.99496390     2.31921448    -4.09372154     0.09067040    -0.98545470     0.67416004
Ti     -5.81865308     6.69008107    -7.97865367     0.70222018     0.70081804    -0.06235505
Ti     -7.71096500     4.33121176    -7.65256119    -0.97436595     0.38399689     0.54675595
Ti     -7.75107252     4.33864746    -3.74779656    -0.29971140    -0.00269779    -0.75703413
Ti     -3.82624634     4.33171786    -7.71951033     1.31371006     0.34566889     0.18222393
Ti     -3.88526574     4.47407807    -3.70105976    -0.43308816    -0.38742801     1.17252792
Ti     -2.30416590     0.01667914    -2.17732894     0.27391088     0.27963895    -0.35745167
Ni     -5.87194986     2.41861359    -8.06217298    -0.34292172    -1.99170433     0.76073872
Ni     -5.86369509     2.28690473    -3.98114985    -0.52434455    -0.07105204     0.84821393
Ni     -9.78101752     6.64785621    -7.78758238    -0.06693063    -0.30824082    -1.12282443
Ni     -9.65442031     6.43889504    -4.02043587    -1.14872465    -0.25813789     0.31382855
Ni     -1.92395955     2.06630684    -7.92889426    -0.50162730     0.18152250    -0.30327473
Ni     -5.82900042     6.50744936    -3.97263614    -0.33880290    -0.08211501     0.22641274
Ni     -5.93117797     8.71289876    -5.97169753     0.01765416     0.07705112    -0.13767173
Mo     -6.10729852     0.08846533   -10.25880053     1.40561541    -0.80775300    -0.32200821
Mo     -9.79003435     8.70098069    -6.28336115    -0.52416272     0.36040151    -0.64368046
O      -1.98596335     1.93138534    -1.95128580     0.09564677    -0.70627175     0.13240543
O      -1.98159226     1.87375677    -6.02575301    -0.37320251    -0.48003313     0.12230866
O      -6.00306488     6.81030138    -2.04539148     0.52169304     0.28754352     0.33908400
O      -5.79287741     6.83651021    -5.99845594    -0.44123517     0.42065520     1.03584187
O      -5.94934063     2.04546773   -10.06622688     0.07050740    -0.39766410    -0.02187009
O      -5.85673913     1.81727650    -5.79103868    -0.49453758     0.43899088    -0.19279807
O      -9.81427726     6.91135652    -9.72081736    -0.06505430     0.95547457     0.03434899
O      -9.83406120     6.79176970    -5.93152902     1.11680593    -0.55541338    -0.21971156
O      -3.95192607     2.48623563    -3.93136330     0.68764669    -0.27492184    -0.26073470
O      -3.93756618     2.38361334    -7.91560206     0.29830162     0.66562147     0.13228734
O      -7.83846618     2.35904144    -3.89618873     0.17322501     0.03718010    -0.53712704
O      -7.80673829     2.38942899    -8.01434883    -0.22563211     0.19425866     0.38741400
O      -3.82927002     6.37523670    -3.92718531    -0.26821182     0.57754990     0.09652343
O      -3.90936498     6.39601829    -7.99771742    -0.36488719    -0.72247457     0.73320307
O      -7.75263297     6.28329232    -3.95149291     0.02613732     0.50435007    -0.35043029
O      -7.73764656     6.30332326    -7.82704854    -0.65137313     0.08374345    -0.42331545
O      -3.87316502     4.49952088    -1.92202025    -0.12702588    -0.37423813    -0.90314634
O      -3.77839936     4.40176081    -5.95117791    -0.31341225     0.13384367    -0.12359090
O      -7.75381979     4.34896066    -9.97799344    -0.22694783     0.12177730     1.63935924
O      -7.97429278     4.28420567    -5.92597711     0.50049371    -0.11069127    -0.15125306
O      -4.12704728     0.12823375   -10.01964927     1.16204189     0.02157987     0.26221264
O      -7.93379634     8.61620595    -6.00810230    -0.20524324     0.15732215    -0.31469117
O     -11.62510884     8.68250382    -6.11638458     0.53950375     0.06497055     0.41609836
O      -7.83073267     0.10904439   -10.11672348    -1.16241106    -0.18450690     0.43835181
O      -9.67503006     4.18215044    -8.00218257    -1.35767324    -0.06413715    -0.17931169
O      -9.72642275     4.57666371    -3.97222518    -0.17016659     0.15180898    -0.06410940
O      -5.80941240     4.36980934    -4.08380882     0.21427590     0.33666211     0.12236052
O      -5.83425570     4.29056025    -7.83228735     0.71812898     0.47478341    -0.50646182
O      -2.06351597     0.28519013    -4.02964946     0.18895290    -0.14435939     0.36207345
O      -5.79403536     8.51797623    -8.00308237    -0.59039031    -0.11966506    -0.45217400
O      -9.74987297     8.36326498    -4.03149632    -0.14888853    -0.35477799     0.50430398
O      -5.94074152     0.44523785    -8.10638806     0.38850030     1.08214147     0.04301594
