# total energy = -630.35101137 eV

CRYSTAL
PRIMVEC
        0.00279571     0.02951795    -7.98606283
       -7.83802570     0.01298533    -3.99532603
       -3.92160916     8.71933433     0.00634407
PRIMCOORD
56 1
Li     -3.90038747     2.22283559    -1.95129349    -0.22099349     0.13885538     0.32787284
Li     -3.89711046     2.31177077    -5.79210866    -0.58094517     0.02189630    -0.86148898
Li     -7.59837552     2.15333012   -10.11615293    -1.31581747     0.19574949     0.17837897
Li     -7.90543786     1.98401348    -5.91564958     0.78930098     0.82620000     0.01193745
Li     -3.95282895     6.54791418    -1.94888439    -0.31608290    -0.23910353     0.02584747
Li     -3.94407034     6.48077436    -5.92460749    -0.28332380    -0.12311234     0.42601423
Li     -7.79452670     6.46060301   -10.03047667    -0.21189073     0.73917900     0.40494534
Li     -7.99472581     6.61865373    -5.82744774     0.47477473    -0.27736901    -0.69792071
Ti     -1.82562879     2.25314094    -4.18097454    -0.54726945     0.28931080    -0.23481283
Ti     -5.93330775     6.80144740    -7.98085612    -0.10666281    -0.85855173    -0.19044273
Ti     -7.80956677     4.42451711    -7.85183720     0.65071783     0.29292525     1.03212126
Ti     -7.64796091     4.44061311    -3.68701127    -1.67832248     0.25702561    -1.95905094
Ti     -3.92495335     4.37053152    -7.62536937     0.43281164    -1.20998158    -0.53846607
Ti     -3.97027476     4.37123772    -3.62814813     0.66820486     0.74800087    -0.40870749
Ti     -2.11236807     0.15162683    -2.12573360    -0.22414216    -3.00814350    -0.20072983
Ni     -5.77919034     2.25777434    -8.11244138    -0.46134678     1.63565094     0.70202156
Ni     -5.87130610     2.20258042    -4.08945357     0.35639156     0.96022881    -0.28986713
Ni     -9.84024420     6.46983377    -7.89641936     0.21531858    -0.00154535    -0.17836253
Ni     -9.86324689     6.42710242    -3.94211301     0.41795018    -0.55290795    -0.40050863
Ni     -1.88590473     2.22742757    -7.93294832    -0.40214936     0.94055440    -0.86570406
Ni     -5.98973006     6.53714690    -3.95695273     1.06893536     0.73848932    -0.45492751
Ni     -2.14224869     0.07372882    -5.92555660     0.72150050    -1.85657527    -0.38561026
Mo     -9.87488063     8.64038795   -10.23060356     0.71474387    -0.79807671    -1.07245593
Mo     -9.83908549     8.65826971    -6.40677541    -0.15887517     0.07369399     1.14158920
O      -1.98892688     1.93122841    -1.82680506     0.62683321     1.30126835    -0.74362861
O      -1.92551191     1.90289355    -6.12440191    -0.10371110     0.36052701     2.30739897
O      -5.87113264     6.78488341    -1.96163022     0.13443671     0.80216470     0.09605116
O      -6.01173935     6.90977619    -5.84977828     0.18979364     0.15678848    -0.06953216
O      -5.87979099     1.94007728   -10.13961886     1.12905203     0.36164989     0.56443669
O      -5.82073880     1.95413536    -6.06067945    -0.34876040    -0.09042064     0.26434847
O      -9.75284504     6.70431577   -10.02784437     0.03930423     0.71747051     0.65821950
O      -9.92245218     6.77714006    -5.93501370     0.15921881     0.16984353    -0.17974207
O      -3.80773848     2.44431113    -3.86591896     0.10076539    -0.62427019    -1.02123604
O      -3.88620169     2.35449276    -7.94437981     0.29905491     0.85571752     0.15746531
O      -7.80982191     2.54676274    -4.05148223    -0.00051754    -1.25821520     0.46490104
O      -7.72019165     2.39363233    -8.09359004    -1.69956312     0.04383158    -0.25197670
O      -3.88360238     6.32088531    -3.96897075    -0.28343971     0.15111819     0.33412048
O      -4.00521719     6.28541840    -7.92817416     0.00396903     0.75827845     0.21376985
O      -7.92232551     6.40715906    -4.03954134    -0.07883056    -0.84272525     1.00238364
O      -7.86578424     6.50806300    -8.01834373     0.21992742    -1.21759334     0.56448159
O      -3.90640952     4.40808215    -1.88714864     0.28933216    -0.05981994    -0.08777732
O      -4.02639817     4.45266190    -5.87888545     0.44872261    -0.35038024    -0.50802066
O      -7.46266741     4.64881270    -9.97416051    -0.92404653    -0.73963525     1.25317344
O      -7.92221721     4.38943045    -6.11593438     0.30125756     0.54158150    -0.24078775
O      -7.83880879     8.73712288    -9.90350879    -0.73426577    -0.01772253    -0.38158773
O      -8.07773718     8.63835314    -6.04140984    -0.41369704     0.21568142    -0.11618796
O      -7.77943337     0.10364270    -6.06765460     0.37380951    -0.54250532    -0.17329547
O     -11.61492422     8.56238050   -10.13009491    -0.12788335     0.54678221     0.67755007
O      -1.97214961     4.20893660    -4.13643366     0.94302022    -0.90173113    -0.07566178
O      -9.70710058     4.29127915   -11.83881295    -0.50081818     0.20905091    -0.02845277
O      -5.79747968     4.23577353    -4.04565806    -0.76163225    -0.51400020    -0.28159230
O      -5.83593700     4.22734880    -8.04138720    -0.16837236    -0.14182554     0.43543199
O      -2.16422773     0.25868597    -4.00774166     0.96186006     1.12648792    -0.29184933
O      -5.83659636     8.56245527    -7.86716075    -0.08213318     1.15040526    -0.18243568
O      -5.87405768     0.34762311    -4.05613970     0.19146829    -0.56465812     0.53554099
O      -5.84673417     0.43258132    -8.19590782    -0.14744976     0.14367567    -0.43324409
