# total energy = -630.47785354 eV

CRYSTAL
PRIMVEC
        0.00279571     0.02951795    -7.98606283
       -7.83802570     0.01298533    -3.99532603
       -3.92160916     8.71933433     0.00634407
PRIMCOORD
56 1
Li     -3.72796213     2.32110811    -1.94684953    -0.96131787    -0.24541884     0.13645076
Li     -3.99538632     2.45255742    -6.05162975    -0.14176421    -0.37818345     0.62017449
Li     -7.95610917     2.32082445   -10.00673224     0.64648494     0.10245029     0.02105457
Li     -7.87836747     2.38728204    -5.87590912    -0.08525747    -0.28278400     0.11231745
Li     -3.96596244     6.62138408    -2.00805286     0.44176420    -0.13378758     0.32156335
Li     -3.95493054     6.48048672    -5.84778238     0.30238655    -0.07791560    -0.16798398
Li     -7.94304593     6.46862932    -9.88364325     0.33047960     0.06239012    -0.34550531
Li     -7.83456666     6.59271927    -5.75993633    -0.17855722    -0.00029746    -1.26381300
Ti     -1.94552258     2.16127803    -4.12281784    -1.09313212    -1.96602149     0.25034969
Ti     -5.79932357     6.54687969    -7.97320576    -0.85606653     1.09222247    -0.64163422
Ti     -7.85265806     4.38260342    -7.67235434     1.54901961     0.67036700    -0.80128274
Ti     -7.76161272     4.32309881    -3.78130682     0.42794124     0.37344905     0.36355424
Ti     -3.73968995     4.34623228    -7.73977355     0.13506516     0.41323977    -0.37058965
Ti     -3.88951132     4.44468711    -3.76456079    -0.99129658     0.05761739    -1.08631782
Ti     -6.10015558     8.67348713    -2.18598795    -2.13132262    -1.44368209     1.54649102
Ni     -5.88882504     2.39769789    -8.06114691     1.01738863     0.83839558     0.15134656
Ni     -5.84397722     2.16846417    -4.05306180    -0.11546873    -0.32978888     1.12555325
Ni     -9.77537715     6.52558285    -7.91307424    -0.13924175     0.74826855     0.54020461
Ni     -9.72081503     6.51517185    -4.00240150    -0.48176152    -0.29079493    -0.66592725
Ni     -1.93654039     2.01257403    -7.94436043     0.15431857    -0.09703057    -0.59864756
Ni     -5.88469224     6.65190057    -4.05146743    -0.25367769    -1.02901288     0.22865336
Ni     -6.10575713     8.71405131    -6.04918896     0.65383398    -2.22458868    -1.07217748
Mo     -6.06523246     0.13155205   -10.18484890     2.02154031     0.34580715    -0.57098440
Mo     -5.92141826     0.10900805    -6.30608184     1.15026446    -0.48532512    -2.00380766
O      -1.93215419     1.79852671    -1.97185529     0.63545747     0.85173419    -0.63568993
O      -2.06523074     1.73701855    -6.10709252     0.32983619     2.03661418     1.29530344
O      -5.95859168     6.71723077    -2.02019179     0.86381204     0.55719014     0.42544358
O      -5.87744581     6.86659538    -6.10680605    -0.26844215     0.16069841     1.28604627
O      -5.76712359     2.14267415   -10.03409693    -0.56496479    -1.48780299    -0.88498394
O      -6.01326342     2.01557645    -5.92649089     1.01913232     0.18979538     0.38400985
O      -9.78925420     6.95617233    -9.76710798    -0.62791786     0.24556749    -0.02797573
O      -9.75366067     6.74835765    -6.07522494    -0.27226657     0.21108021     0.71182231
O      -3.90504690     2.24677701    -4.11015137     0.63640727     1.18324149     0.42211123
O      -3.89953594     2.45650057    -7.91030269     0.16643091    -0.33509296    -0.68709290
O      -7.78024938     2.27099458    -3.89655845    -0.32162936     1.39821237    -0.62288472
O      -7.76573019     2.37161308    -7.93005532    -1.20204604     0.29982903    -0.72074086
O      -3.84531762     6.41091807    -3.88718231     0.39025256    -0.60724012    -0.52847126
O      -3.92803526     6.28673584    -7.94510380     0.33755841     0.69952010    -0.54939068
O      -7.82559646     6.37990278    -4.01025451    -0.09944045    -0.71832421     1.04626143
O      -7.79222740     6.33051744    -7.96277030    -0.54854559    -0.71028878     0.09102089
O      -3.91135367     4.22174508    -2.05810602     0.14330351     0.27620344     0.84482779
O      -3.78045109     4.44694008    -5.98723545     0.11454145    -0.43906347     0.82596826
O      -7.91104760     4.36171635   -10.00456410    -0.00765311    -0.05038630    -0.02862892
O      -7.88818400     4.43630352    -5.94620839    -0.15516261    -0.55538839     0.51207214
O      -7.92221775     8.70994489    -9.91752640     1.09125159     0.51362041    -0.46740022
O      -8.11637612     8.63424420    -5.99467663     2.06368771    -0.02177869     0.34696619
O     -11.50564458     8.60373786    -5.90344647    -3.34819397    -0.40478896     0.03954705
O      -7.77568158     0.12688641    -9.95308094    -0.54807194     0.06328716     0.21788384
O      -1.88778579     3.92964519    -3.93904183    -1.10329472     1.55088712    -0.37206176
O      -9.72747517     4.58357426    -4.05706892     0.26585083     0.27429277    -0.07721811
O      -5.80202261     4.64892377    -4.18268469    -0.47671282     0.23613150     0.72742188
O      -5.84561980     4.36437319    -7.93047519    -0.36823525     0.29958011    -0.18446680
O      -6.05480900     8.64745329    -4.07695187     0.85931631     0.86993272     0.18625327
O      -5.80218294     8.56573548    -8.01505003    -0.19546611    -1.29055255     0.05684833
O      -9.80252724     8.50680471    -3.97214511     0.00569941    -0.28149743     0.32122033
O      -5.81380144     0.59332190    -8.11148553    -0.50411898    -0.44167528     0.29713954
