# total energy = -629.75544617 eV

CRYSTAL
PRIMVEC
        0.00279571     0.02951795    -7.98606283
       -7.83802570     0.01298533    -3.99532603
       -3.92160916     8.71933433     0.00634407
PRIMCOORD
56 1
Li     -4.08025700     2.56686988    -1.85657741     0.35685404    -0.52247217    -0.17754778
Li     -3.80449561     2.20102152    -5.94116324    -0.24621246    -0.10537994    -0.32161794
Li     -7.82286896     2.49837192    -9.97809632     0.01675713    -0.49987234     0.30041450
Li     -7.97711317     2.07210443    -6.15005302     0.92856440     0.23291231     1.14041074
Li     -3.93775890     6.60815659    -1.96946436     0.84040391    -0.17287333     0.49148908
Li     -4.05799508     6.76661684    -5.98985153     0.83399081    -0.56898900     0.28165083
Li     -7.87299569     6.22133501    -9.83795594    -0.13043281     0.76637833    -0.80436409
Li     -7.94945871     6.69964532    -5.73501222     0.56848457     0.02242705    -0.49388480
Ti     -1.98637329     2.38244024    -4.00378569    -0.30671526     0.07615867    -0.11869342
Ti     -6.05604598     6.68693700    -7.83844546     2.21153269     1.46840895    -0.54533085
Ti     -7.62077680     4.33274573    -7.78306162    -0.12061497    -1.21435754     1.00733115
Ti     -7.87530926     4.28403565    -3.81769114    -0.02788142     0.44903280     0.84189199
Ti     -3.78465538     4.42583790    -7.74747823    -0.56106972     0.69903110     1.57186316
Ti     -4.10660877     4.49245009    -3.80537329    -0.24947155    -1.38150974     0.30811327
Ti     -2.09104100     0.06351610    -2.29626621    -1.38035844    -0.67296129     0.69591490
Ni     -5.83109552     2.08662994    -7.84785142     0.07348140     0.16373978    -1.08725572
Ni     -5.87643709     2.25208067    -4.29033791     0.04492925     1.65392483     2.53887198
Ni     -9.91155487     6.22831443    -8.23332649     1.35385146     1.31170482     0.79183624
Ni     -9.77338185     6.50899859    -3.78500958     0.03583825     0.20035281    -2.39163514
Ni     -1.97750662     2.11794966    -8.00219632     0.48107509    -0.13240602     0.57353216
Ni     -5.90386924     6.47544033    -3.79336363     0.33012292     0.45835844    -1.08034120
Ni     -1.89015157     0.07258196    -5.99142977    -0.85340251     0.78771352     0.02639991
Mo     -5.99581444     0.19374812   -10.30758727     1.60073034    -2.05813933     0.29154501
Mo     -9.80416453     8.70603832    -6.28275770     1.22603687    -1.36893106    -1.80561970
O      -1.95320391     1.93392079    -1.98041570    -0.41081157     0.28028260    -0.81071659
O      -1.83029505     1.88324384    -5.87114171    -0.61010319     0.78255047    -1.22548779
O      -5.72967060     6.89559702    -2.00776540    -1.28890473    -0.32350302     0.92337311
O      -5.86457379     6.94692987    -5.99177140    -0.99908659    -0.05151276     0.60117653
O      -5.97369827     1.90821092    -9.69676225     0.86559811     0.93528074     0.18286660
O      -5.82998897     1.89343461    -6.06073814    -0.40124166     1.42653571    -0.82262848
O      -9.90224427     6.84674532   -10.07007900     1.01979352     0.17742629     0.81719144
O      -9.75673721     6.98868077    -5.66752259    -0.24337034    -1.15262042     0.70467236
O      -3.95393151     2.45900239    -3.98227955     0.65012425     0.14212144    -0.16477584
O      -3.92390416     2.42236094    -7.87902477    -0.70406069     0.20762596    -0.61813058
O      -7.73033601     2.36157965    -3.97516438    -0.99694435    -0.15563177    -0.43280257
O      -7.79860327     2.33902631    -7.96947741    -0.16924207     0.89585221    -0.03541185
O      -3.93001007     6.33636410    -4.05289048    -1.01359167     0.64978295     0.07959180
O      -3.83166339     6.41397811    -7.86331751    -0.18526947    -0.36879238    -0.72309680
O      -7.75615505     6.27889625    -3.95479622    -0.75983080    -0.50795802     0.83228423
O      -7.86356460     6.25018807    -7.94061637    -0.70699373     0.87150865    -0.15125896
O      -3.82523369     4.50318644    -2.02365430    -0.62937176    -0.30822541    -0.21550697
O      -3.77594031     4.45041216    -5.96875246    -0.17689273    -0.39882884    -0.43986796
O      -7.85496184     4.38991342    -9.90272268     0.04088819    -0.36209719    -1.27077548
O      -7.98674668     4.26024160    -6.05563131    -0.02753971     0.26473752     0.01046055
O      -3.97865035     0.07138611    -2.08092469     0.08334159    -0.37574276    -0.25726889
O      -4.01605717     0.17222263    -6.06616412    -0.09653689    -0.57020222     0.14744678
O      -7.68534379     0.06312516    -6.02941859    -0.90034810     0.36617091    -0.22294659
O     -11.64922681     8.69817522   -10.12008696    -0.61835257     0.40004291     0.20776235
O      -2.05045706     4.31863402    -4.09783803     0.58900472    -0.21544009     0.15968791
O      -1.92784906     4.10272370    -7.99611019     0.27518247    -0.64014428    -0.24368568
O      -6.00123486     4.09057482    -4.15227541     1.48931462     0.65637577    -0.01730150
O      -5.78082945     4.75171272    -7.74687865    -0.49899124     0.07909233    -0.86599198
O      -1.88784282     0.34828206    -4.09468951    -0.11997996    -0.21361197     0.30248695
O      -5.91864172     8.69803730    -7.91331307    -0.00185599    -0.48215964     0.09597019
O      -5.83008891     0.48262772    -4.11434823    -0.06171202    -1.02128653     0.59647305
O      -9.78531108     8.15148196    -8.10752783    -0.28479053    -0.20055809     0.66674066
