# total energy = -630.75760777 eV

CRYSTAL
PRIMVEC
        0.00279571     0.02951795    -7.98606283
       -7.83802570     0.01298533    -3.99532603
       -3.92160916     8.71933433     0.00634407
PRIMCOORD
56 1
Li     -3.92071102     2.21670598    -1.98638100    -0.02617323    -0.20850938    -0.07883239
Li     -3.93237571     2.37000675    -5.96126347    -0.35792686    -0.13694775    -0.29609520
Li     -8.00648261     2.58224875    -9.99837293     0.61852843    -0.78073506    -0.20326942
Li     -7.69911959     2.28349808    -5.96149875    -0.25679727    -0.07063422     0.02675034
Li     -3.97672736     6.34757500    -1.96948996    -0.00502800     0.03118352     0.05450766
Li     -3.95830962     6.28225484    -5.86999365     0.02868387     0.55401281     0.08107838
Li     -7.92080462     6.61762762   -10.03431648     0.17858929     0.05508063     1.11103584
Li     -7.81179963     6.45201901    -5.90875252    -0.55333134    -0.12929450     0.28857595
Ti     -1.90382581     2.18355722    -4.10991804    -0.37819928     1.27256985     0.78578196
Ti     -5.81909675     6.66904753    -7.85705138     0.67806289     0.26734561    -0.38115594
Ti     -7.73088252     4.40620515    -7.70427131    -0.62040833     0.64333652     0.59536407
Ti     -7.80847476     4.48316635    -3.68683176     0.97185928    -0.31569083    -0.32505583
Ti     -3.66144871     4.32670805    -7.81599602    -1.01230611     0.48403211    -0.21024620
Ti     -3.96569665     4.24624440    -3.80703963    -0.04595911     0.64284077     1.13213422
Ti     -5.94959878     8.67750888    -2.21034003    -1.10971657     0.69641525     1.50478890
Ni     -5.91585223     2.40839973    -8.04782559     1.51784464    -0.15234608     0.21851488
Ni     -6.00792610     2.12507777    -4.06382383     1.20358251     1.16087197    -0.60111175
Ni     -9.90157120     6.51778567    -7.95045481     0.03306389    -0.03879040    -0.03474421
Ni     -9.79048372     6.76084552    -3.93692290    -0.48143937    -0.90104211    -0.37062077
Ni     -1.92411960     2.09302213    -8.14502290    -0.35047967     0.11444262     1.48736429
Ni     -5.92191107     6.72779222    -3.88445678     0.42300850    -1.01225167    -0.46461019
Ni     -2.05405954     0.02725027    -5.94463045     0.32302189    -1.23725263    -0.57844431
Mo     -6.04625577     0.04068654   -10.12812171    -0.53585819    -0.41369718    -0.56464969
Mo     -9.76974005     8.53448789    -6.42519175    -1.57476997     0.60662694     0.02888964
O      -1.90385982     1.96139491    -1.96235853     0.10873326    -1.25793368    -0.88659536
O      -2.04034805     1.87706134    -6.01296893     0.39546052    -0.04093317    -1.05069034
O      -5.96169918     6.78350117    -1.86410151     0.51990209    -0.15611754    -1.30408179
O      -5.94870757     6.83490486    -5.81320847     0.21563964     0.69616014    -0.54103164
O      -5.88123707     2.02114321   -10.08654368    -0.70501741    -0.14261169    -0.04448751
O      -5.78519046     1.97518394    -6.03102885    -0.80846679    -0.70946379     0.24061786
O      -9.83674969     6.85044080    -9.85718554     0.81740434     0.03673161     0.57564403
O      -9.94634565     6.62300784    -6.09347669     1.10112650     0.91809513     0.70546003
O      -3.86960537     2.25170859    -3.99477552    -0.56259935     1.09273598     0.00626730
O      -3.93034132     2.45629416    -8.08173755     0.32822027     0.21793795     0.56255900
O      -7.94647087     2.48415824    -4.02584341     0.15455637    -0.32770337     0.76278397
O      -7.81930090     2.47657292    -7.98991501     0.33475655    -1.00274600    -0.54292365
O      -3.97053040     6.36172016    -3.94607955    -0.15608014    -1.00513371    -0.11777294
O      -3.88347097     6.48688014    -7.93003046    -0.63697725    -0.75878464     0.07342835
O      -7.84321664     6.45102772    -3.91361001     0.18313655    -0.18616194    -0.09809112
O      -7.96796046     6.32308693    -7.87940005     0.62517364    -0.00808152    -0.17234897
O      -3.82486610     4.40798350    -2.01722233    -0.49120433    -0.18039371    -0.81151942
O      -3.91189893     4.45074293    -6.05669674     0.39477046    -0.54439615     0.42916447
O      -7.70467267     4.36471710    -9.87983595    -0.58462038     0.57239328    -1.52042305
O      -7.80979159     4.22346482    -5.94122232     0.04617167     0.97154851    -0.61709785
O      -3.88821413     0.03850030    -2.01059691     0.02836511    -0.35602162    -0.56288347
O      -8.04399370     8.51508126    -5.99226737     0.67791145     0.38050787     0.22962489
O     -11.57709554     8.67610523    -6.12450378    -0.38756195     0.16025565     0.11421788
O      -3.86408184     8.55465758    -5.95454735     0.33812295     0.85860915     0.23942293
O      -1.95604879     4.05602425    -4.05329545    -0.34414363     0.68577315    -0.25538579
O      -9.69294149     4.72249937    -4.00557130    -0.02736617     0.21237093     0.10134583
O      -5.86979192     4.10440157    -4.06390484    -0.23860389    -0.45409855     0.16035028
O      -5.80854388     4.45090542    -7.97030088    -0.19542075    -0.09983779    -0.05002504
O      -1.85557078     0.28408660    -4.06440454    -0.17519285    -1.01922753     0.46736941
O      -5.79248372     8.47376965    -7.96316480    -0.46934515     0.34273541     0.59230158
O      -6.09859354     0.26614304    -3.99485880     0.78983691    -0.71026597    -0.01476337
O      -5.81367878     0.56488107    -8.16104971    -0.11528494     0.20863340     0.13607407
