# total energy = -630.48002070 eV

CRYSTAL
PRIMVEC
        0.00279571     0.02951795    -7.98606283
       -7.83802570     0.01298533    -3.99532603
       -3.92160916     8.71933433     0.00634407
PRIMCOORD
56 1
Li     -4.02690491     2.23564361    -1.71709721     0.61054247     0.16406876    -0.74269976
Li     -3.92243355     2.17395880    -5.87953652     0.07340442     0.09644096    -0.45956395
Li     -7.75096272     2.20366587    -9.86267158     0.06010270     0.05057339    -0.57697353
Li     -7.82327859     2.36531216    -5.92381480    -0.14619522     0.04835300    -0.15617502
Li     -3.93305121     6.19095388    -1.76875271     0.48724843     0.56536651    -0.80066036
Li     -3.89288394     6.39658534    -5.96279730    -0.15985515     0.05254199     0.40950856
Li     -7.85986158     6.34909576    -9.96415770     0.18323746     0.49726024     0.06742514
Li     -7.75050911     6.42936567    -5.79356363    -0.57991447     0.02542899    -1.15632479
Ti     -1.94745798     2.43658978    -4.11544654     0.35734612    -0.02605192     0.76574766
Ti     -5.85858797     6.83293865    -7.90201030    -0.29510632     0.93518443    -0.20071853
Ti     -7.70309476     4.51183392    -7.82806618    -1.39006483    -1.33513257     1.54385703
Ti     -7.98709905     4.36190118    -3.69324529     0.91924045    -0.66460129    -1.41819129
Ti     -3.99592522     4.33195310    -7.71678361     0.67093027     0.19038171     0.77553879
Ti     -4.17915905     4.29199448    -3.68009361    -1.45246845    -0.21935241     0.54546951
Ti     -1.88448670     0.10227515    -2.27435861     1.30673054     0.26960851     1.05257540
Ni     -5.83345003     2.21544214    -7.91415044    -0.28504186    -0.34093029     0.47108411
Ni     -5.96031325     2.11007818    -3.98646646    -0.31736869    -0.23882269    -0.18568450
Ni     -9.85206885     6.32487939    -7.99585146    -0.01981375    -0.24550563     0.06764977
Ni     -9.72940620     6.74911819    -4.00666182    -0.41632932    -0.41070195    -0.30990397
Ni     -1.94913488     2.10200286    -8.01264960    -0.15462274     0.40750343     0.56558163
Ni     -5.87534744     6.59991392    -3.89595329     0.60103430     0.05881521    -0.35223525
Ni     -1.84848076     0.08555698    -5.94113692    -0.97386341    -0.38146673    -0.67403132
Mo     -9.83996387     8.64687035   -10.23698323    -0.64968873     0.08216438    -0.81458789
Mo     -5.84193749     0.14002664    -6.39907311    -0.11674960    -1.16721893     0.06958226
O      -2.02774680     2.01843936    -1.99422562    -0.18771132    -0.67969542    -0.17695788
O      -1.89595444     1.89440836    -6.01765369     0.07179695     0.72150306     0.47610247
O      -5.78241593     6.94636731    -1.92492802    -0.81682105    -1.13635827    -0.80252471
O      -5.87393871     6.94745438    -5.95572716     0.06345906    -0.02653755     0.88188931
O      -5.83729063     1.81209479    -9.70918796    -0.45301049    -0.48156818    -0.80847631
O      -5.79812572     2.00971358    -6.07973795    -1.30966751     0.69152643     0.86196216
O      -9.78912410     6.70071263    -9.99880884    -0.24155621    -0.10437742    -1.23998378
O      -9.76401527     6.93194116    -5.95014110    -0.51127466    -1.03291788     1.21768136
O      -3.93403821     2.39749405    -3.98535653     0.67360725    -0.21248410     0.20656112
O      -3.93183752     2.36675734    -7.81728018    -0.07609132     0.13104963    -0.88745053
O      -7.92749997     2.33165506    -3.98268756     0.54825629     0.15728794     0.14994567
O      -7.76194518     2.43342442    -7.97812867    -0.82210882     0.24895298    -0.00446230
O      -3.90121441     6.13188605    -3.93745315    -0.55764354     0.82417380    -0.12032906
O      -4.00435669     6.41276775    -7.92539686     1.27522543    -0.39914608     0.36010279
O      -7.72723946     6.26579008    -4.04999029    -0.55159178     0.29806902     1.63205169
O      -7.90416651     6.39570478    -7.95061445     0.33853658     0.53157415    -0.41248100
O      -3.90912326     4.29091715    -1.86181608    -0.38920016    -0.29129652    -1.18887813
O      -3.97620451     4.24276119    -5.93406320     0.28218953     0.69422242    -0.71700647
O      -7.70228988     4.31008763    -9.94988189    -0.47739581     0.38183146     1.22350896
O      -7.99631853     4.32657551    -6.07606931     0.77211177     0.26349119    -0.40208224
O      -8.03841744     8.58394984    -2.36839566     0.28322364     0.25336190     1.23026261
O      -4.07554779     0.11813323    -6.18121638     0.47767315     0.02311301     0.10825376
O      -7.81706687     0.14472492    -6.23700624     0.00691766     0.38386815     0.28553829
O      -3.92786673     8.63612921    -6.11069397     2.30011578     0.38356094     0.28414061
O      -9.78355572     4.36734235    -8.15691843    -0.49575454    -0.59724470     0.32660888
O      -1.92934412     4.24079652    -0.04973393    -2.21409970    -0.20947018     0.46803280
O      -6.06990525     3.92234713    -3.94464566     2.19720320     0.86396428    -0.24596287
O      -5.89609963     4.76185231    -7.89978268     1.67333721     0.06227758    -0.27992823
O      -1.99777284     0.40009057    -4.04054042    -0.00492518     0.11481612    -1.07656672
O      -5.86070239     8.74088656    -7.99788466    -0.19634932    -0.79647990    -0.19810992
O      -5.96289586     0.19694832    -4.21180957    -0.24560621     0.02548656     1.24086931
O      -9.96934447     8.12709089    -8.09145207     0.42947623     0.65524430    -0.64920356
