# total energy = -630.99765005 eV

CRYSTAL
PRIMVEC
        0.00285542     0.02004370    -7.95977623
       -7.82940539     0.00763210    -3.98158109
       -3.91729101     8.74642787     0.01461334
PRIMCOORD
56 1
Li     -4.04915611     2.30832545    -1.86720482     0.42494029    -0.29440244    -0.36453414
Li     -3.88163519     2.08455179    -5.92111852    -0.56698975     0.22398583    -0.33732229
Li     -7.76150704     2.37959167    -9.88887844    -0.32275704     0.16525521    -0.70484242
Li     -7.73651676     2.46988505    -5.90610052    -0.17843732    -0.80650655     0.21451338
Li     -3.86415020     6.35221217    -1.97787311    -0.10882112     0.38181378     0.41707570
Li     -3.96117705     6.34943769    -5.78298893     0.22446595     0.15465279    -0.24787440
Li     -8.01060641     6.48310730    -9.90385352     0.50935041    -0.39257037     0.21447127
Li     -7.86112161     6.63128145    -5.86775704     0.65364113    -0.31655494    -0.12848137
Ti     -1.83499050     2.13797487    -4.07800320    -1.62754716     0.84708556     0.59041118
Ti     -5.75859346     6.78988895    -7.91141174    -0.80974039    -0.93770037    -0.47695239
Ti     -7.73664396     4.40258727    -7.70400771     0.13705079     1.01837835    -0.79646180
Ti     -7.83360785     4.38622521    -3.78519110     0.03822916    -0.02217434     1.87870756
Ti     -3.80775302     4.40803612    -7.72441488    -0.38425261    -0.70336388    -1.26784026
Ti     -3.90897492     4.39799279    -3.70551933    -0.39678066    -1.29735130     0.57437361
Ti     -6.16111201     8.69564759    -2.13312340     0.69255953    -1.67972446    -0.59987657
Ni     -5.82789911     2.30497102    -7.88766567    -0.04442164     0.56128364    -0.43167123
Ni     -5.83837352     2.25163828    -4.01931735    -0.71944538    -0.20654721    -0.17815454
Ni     -9.83160348     6.71000158    -7.93368005     0.24628008    -0.24586904     0.92788905
Ni     -9.72389542     6.57825479    -4.02694050    -0.82385849    -1.01841056    -0.01013038
Ni     -2.00666983     2.01630097    -7.94681083     0.93898170     0.37879456    -0.20282983
Ni     -5.88659174     6.63091810    -3.94917718    -0.16315967    -0.57916125     0.28059286
Ni     -5.93461188     8.73747095    -5.98497488    -0.35959560     0.97812938     0.24061228
Mo     -6.05763204     0.12444087   -10.26176732     0.70210118    -0.50732886    -0.42177196
Mo     -9.80113057     8.65397219    -6.27173006    -0.99430944     0.76967645    -0.51233121
O      -1.84103363     1.67696943    -1.98363187     0.36080458     3.06312913    -0.02379343
O      -2.02450460     1.89165817    -5.98465740     0.66500973    -0.80021378    -0.22534722
O      -5.85236801     6.82516462    -1.87666752    -0.53426239    -0.45342498    -0.29344644
O      -5.86008209     6.94643654    -5.94539280     0.14370626    -0.95353632    -0.28394005
O      -5.93260824     2.01741487   -10.12051770     0.65479858     0.09381548     0.67068734
O      -5.81942209     1.95022838    -5.86592634    -0.24356755    -0.85635252    -0.07922705
O      -9.82784236     6.95117668    -9.74084676    -0.21299087     0.29921998    -0.55166432
O      -9.67035674     6.74842395    -6.06706837    -1.05633324    -0.95404088     0.51291413
O      -3.91301636     2.34945430    -4.06553490     0.06076487     0.60305380     1.00804521
O      -3.88446304     2.41857018    -7.92872862    -0.10967308    -0.10855316     0.23547324
O      -7.85747878     2.45803305    -4.02523022     0.16064427    -0.64257684     0.43576049
O      -7.80471120     2.34223773    -7.98006244     0.43313495     0.25112117     0.45783910
O      -3.94112570     6.36270433    -3.86001531     1.02595898    -0.29745306    -0.54957228
O      -3.89440129     6.39396458    -7.99426167     0.05968749     0.34097749     0.53923118
O      -7.86633514     6.37167959    -3.91854514     0.26421568     0.17350345    -0.08003545
O      -7.84046556     6.29413596    -7.91502998    -0.13029180     0.53128399    -0.17492285
O      -3.92311762     4.18418831    -1.93038250    -0.18241175     0.85991229    -1.33437144
O      -4.03026779     4.39092608    -6.01963731     0.03480817     0.17750811     2.38290430
O      -7.94245511     4.26265428    -9.91382839    -0.23741013     0.45200536    -1.01621922
O      -7.75408060     4.31641842    -5.94207799    -0.28951655     0.13888898     0.14073537
O      -4.00115231     0.11508865    -2.06822205    -1.50398971    -0.28741132     0.19213297
O      -7.94968111     8.55508806    -6.05359964     0.35252259     0.98534318     0.16298720
O     -11.58653422     8.52376151    -6.02166653     0.91528761     0.47410760     0.03886359
O      -7.76101617     0.09376441    -9.92594114    -0.54353895     0.11189229    -0.63729903
O      -1.98414354     4.03052067    -3.84900922     0.63566861    -0.56721929    -0.64883760
O      -9.82571235     4.62783547    -4.01816498     1.46525522     0.66955904    -0.14036177
O      -5.91204479     4.68583146    -3.79877298     0.53484512     0.27231123    -0.81245102
O      -5.86387193     4.46801236    -8.01229708     0.04343017    -0.60391021     0.10004377
O      -5.80489649     8.66192250    -4.07637674    -0.33707634     0.92961973     1.02228027
O      -5.89406747     8.62707307    -7.95172775     0.18819081    -0.30685922    -0.01680833
O      -9.75773114     8.44580736    -4.06672459    -0.19167634    -0.11273335     0.65914574
O      -5.90072444     0.46062885    -8.05557467     0.37334957     0.60208060    -0.55233756
