# total energy = -630.40309313 eV

CRYSTAL
PRIMVEC
        0.00285542     0.02004370    -7.95977623
       -7.82940539     0.00763210    -3.98158109
       -3.91729101     8.74642787     0.01461334
PRIMCOORD
56 1
Li     -3.89383185     2.39810381    -2.00727310    -0.29587548    -0.39233652     0.38704871
Li     -3.92781873     1.92548552    -6.01360799    -0.35249278     0.11826162    -0.14915807
Li     -7.81001519     2.47801146    -9.81452708    -0.22430441     0.06045840    -0.82848203
Li     -7.64832607     2.55848468    -5.82973049    -0.50302867    -0.42907648    -0.63439602
Li     -3.94226282     6.53515029    -2.06069554     0.37460215    -0.29093880     0.11957202
Li     -3.89701570     6.32572986    -5.92788263    -0.20128845     0.54435459     0.17414551
Li     -7.85256052     6.56972756    -9.86088268     0.31886781    -0.15747885    -0.21466023
Li     -7.63502084     6.57663527    -5.93769532    -1.06775687     0.04575325     0.37392128
Ti     -2.06199402     2.18225303    -4.08490754     0.69619359     1.06425531    -0.06476152
Ti     -5.78795712     6.73063879    -8.00350773    -0.12021413     0.66815835     0.04377513
Ti     -7.70594568     4.39784827    -7.70206986    -0.59003145     0.75207018    -1.01258102
Ti     -7.78250688     4.37380968    -3.75752838     0.34573385     1.96340773     1.13189196
Ti     -3.82095039     4.31920619    -7.63741183     0.61393556     1.39812183    -1.77968099
Ti     -3.99677374     4.32333850    -3.80546504    -0.11293710     1.09905668    -1.08751732
Ti     -2.12910924     0.08099047    -2.12032815    -1.40812181    -0.58219216     1.04365941
Ni     -5.85706160     2.44163897    -8.17655790     0.11858353    -1.00349756     0.92220671
Ni     -5.96687658     2.10723531    -3.99049892     1.28911621    -0.09640286    -2.02087007
Ni     -9.76043290     6.44855861    -7.86812950    -0.35410379     0.26422941     0.68068650
Ni     -9.72694933     6.54410466    -3.84543012     0.05369626    -0.07821860    -1.46298910
Ni     -1.92620065     2.28449072    -7.91754362     0.32674862    -0.67836243    -0.59173564
Ni     -5.89608878     6.64540329    -3.98459386     1.29160065     0.02017133     0.07262202
Ni     -5.86300997     8.73499380    -5.96294514    -0.54254825    -0.82453464    -0.25339179
Mo    -10.02310394     8.67451981   -10.08811034     2.54746502     0.08187394     0.63244483
Mo     -9.78304420     8.69725073    -6.28895561     0.77658321    -1.57456746    -1.75518256
O      -1.93583183     2.00473262    -1.91329812     0.20552785    -0.41089551    -0.53916741
O      -1.99836867     1.79725932    -6.06554765     0.87378295     1.12567488     0.70771590
O      -5.90246488     6.78440527    -2.02176066     0.27493256     0.54603840     0.17345609
O      -5.81402229     6.87061341    -5.91382727    -0.03363182     0.23006919     0.25559384
O      -5.98894964     2.00828045   -10.16000326     0.63820137    -0.19798207     1.66984358
O      -5.88067874     1.81949956    -6.05814865    -0.23712259     1.67085542     1.60802486
O      -9.72133896     6.84152830    -9.81760730    -0.07449732    -0.31187128     0.26414675
O      -9.76057200     6.75998182    -5.80448474     0.33806351     0.40646879    -1.02047220
O      -3.93678460     2.26435830    -4.06533920    -0.19068976     0.39791500     0.45172018
O      -3.84601421     2.48715053    -7.93468655    -0.38903726    -0.90780838    -0.55096343
O      -7.79157268     2.47648192    -3.95360487    -1.68428003    -0.91127420    -0.09156155
O      -7.78575904     2.49179539    -7.97096059    -0.15660147     0.02335110     0.22935839
O      -3.86696819     6.28888941    -4.08479476    -0.10454176     0.00660680     1.26185993
O      -3.92509659     6.39277375    -7.92655567     0.00292928    -0.09354755     0.01275230
O      -7.71059054     6.44691224    -3.98768666    -0.91109955    -1.01827060     0.47625883
O      -7.81515390     6.44708214    -7.86531809     0.44547659    -0.76089318    -0.61146860
O      -4.05899285     4.43541064    -2.08610596     0.41828491    -0.25598334     1.44299176
O      -3.81160263     4.50008901    -5.94996943    -0.24792430    -0.57436929     1.46485465
O      -7.80452953     4.44898653    -9.91554863     0.08089843     0.24604295    -0.43643317
O      -7.82439254     4.55695843    -5.97664842    -0.33396923    -0.63515153     0.69833035
O      -3.97936818     0.01748030    -2.13616468     0.55990483     0.08715228     0.54717194
O      -4.02330239     0.02463661    -5.97319208     0.07278057    -0.75012416    -0.45585788
O     -11.52658353     8.55249662    -6.16589117    -1.96545042     0.29914438     0.27133811
O      -3.85949313     8.56103836    -5.81726524    -2.18932532     0.38346441    -0.22245082
O      -2.06210409     4.08158815    -4.07693071     1.26658647     0.11819194     0.45142150
O      -9.72521389     4.66805133    -3.90999963    -0.02079872    -0.37477068    -0.51347642
O      -5.86848274     3.99762224    -4.09992163    -0.76326976     0.17911800    -0.23881498
O      -5.76435858     4.43930311    -7.82198178    -1.24369611    -0.38089165    -0.77154314
O      -2.00866122     0.29928073    -3.96478022     0.67468553    -0.62308031    -0.45917034
O      -5.76561181     8.59585910    -7.97290977    -0.07470690    -0.90512776    -0.22183497
O      -6.10561440     0.08429605    -3.96741513     0.38104073     0.59793285    -0.36798164
O      -5.94933936     0.56082691    -8.19448474     1.07565129     0.47158901     0.74238317
