# total energy = -630.73219830 eV

CRYSTAL
PRIMVEC
        0.00279571     0.02951795    -7.98606283
       -7.83802570     0.01298533    -3.99532603
       -3.92160916     8.71933433     0.00634407
PRIMCOORD
56 1
Li     -3.89231714     2.14379126    -1.98276885    -0.38052483     0.70830327     0.07291188
Li     -4.00282530     2.30392202    -6.00297413     0.58034872     0.05585437     0.13229584
Li     -7.83167815     2.36760275    -9.90204284    -0.02349972    -0.13767439    -0.70237271
Li     -7.86001311     2.13086320    -5.89986086     0.44468394     0.00278013    -0.17100863
Li     -3.96854531     6.68389898    -1.83380059     0.89996257    -0.10686960    -0.76877097
Li     -4.08271269     6.30815460    -5.87377762     0.36470228     1.02286279    -0.03250426
Li     -7.89047613     6.34028305   -10.02831922     0.00681475    -0.21567483     0.28608317
Li     -7.91736199     6.43366093    -5.98004603     0.51060033    -0.26142501     0.22071784
Ti     -2.03350643     2.10412357    -4.13749249    -0.64487454     0.06523691     0.26932062
Ti     -5.87111991     6.52020506    -8.14985037    -0.91352388    -1.20482246     1.13783966
Ti     -7.90948108     4.27753904    -7.75027855     0.71406810     1.02052535     2.07730789
Ti     -7.69620722     4.23518929    -3.80585799    -0.07138894     0.01188260    -0.36494931
Ti     -3.75794507     4.45734321    -7.71240539     0.63016995    -0.32479350     0.93080383
Ti     -3.83166981     4.54831695    -3.78206345    -0.68095248    -0.46706197     1.09324306
Ti     -2.28678056     0.03401961    -1.98926173     1.59413278     0.17167616     0.02993373
Ni     -5.85282108     2.49299334    -7.99547698     0.56802241    -1.25613916     0.10845572
Ni     -5.84518015     2.12264287    -4.00824649    -0.20812116     0.43723379    -0.03889295
Ni     -9.77829613     6.71310342    -7.94056953     0.01393204    -0.15863739     0.68841158
Ni     -9.65953412     6.40677381    -3.96712884    -0.62040693     0.40408137    -0.44576568
Ni     -2.12817052     2.29003678    -8.02240364     3.36053402    -1.22190781     0.26999446
Ni     -5.88321483     6.48938007    -4.04810046     0.15049833     0.04340892     0.61894177
Ni     -6.06320691     8.61314101    -5.87280558     1.03592033     0.51599110    -0.90122501
Mo     -6.08949221     0.03725048   -10.28825836    -0.83372949     0.25277771     0.91889587
Mo     -5.84279152     0.02566588    -6.37685006    -0.20377845     0.18688777     1.11101625
O      -1.89006675     1.93142645    -1.91943836    -0.87622470    -0.46846813    -0.27000193
O      -1.95325507     1.84943969    -6.02051736    -0.44655263    -0.16677144    -0.08767713
O      -5.91841588     6.72464767    -2.00457348     0.25250117     0.15397306    -1.22198375
O      -5.98657794     6.78311282    -5.89041389     0.09506092     0.64758469     0.09124005
O      -5.90845402     1.90387696   -10.04466250    -0.09904767     0.86366479    -0.94540461
O      -5.75119789     2.02902010    -5.87859069    -1.20828505    -0.28614643     0.02895264
O      -9.71682704     6.92063884    -9.77752806    -0.16097615     0.04105253    -0.07158628
O      -9.75144102     6.85436104    -6.04133813     0.04642272    -0.42487617    -0.30533801
O      -3.96473578     2.35162940    -3.97809860     1.14558850     0.26578140    -0.00590615
O      -3.87068949     2.58429176    -7.97702798    -1.74441700    -0.77962785    -0.26108891
O      -7.79937508     2.33636405    -4.05718564    -0.21939117     0.16630611     0.96303034
O      -7.77702851     2.36210768    -8.01493599    -0.66019667     0.79881528     0.32378988
O      -3.83787153     6.52805672    -3.86166480    -0.33370123    -0.65191945    -0.72219745
O      -3.85088558     6.32170303    -7.93867062    -0.92466696     1.36223928    -0.27294279
O      -7.75482277     6.25374115    -3.99275476    -0.36448373     0.38559042     0.15569860
O      -7.88512431     6.34574375    -7.97095308     0.56521143    -0.99177084    -0.15361301
O      -3.83323943     4.48327057    -2.02675403    -0.20175510    -0.17329355     0.04643524
O      -3.86903777     4.52527845    -5.90860244     0.29062788    -0.74872404    -0.54281175
O      -7.78470457     4.39002760   -10.02321974    -0.00344187    -0.26942181     1.16069068
O      -7.80998676     4.38665149    -5.93177966    -0.31781342    -0.10702051    -2.46293472
O      -4.00638343     0.23956562    -9.96229716    -0.99777949    -0.61436745    -0.18958640
O      -4.03319405     0.14158613    -6.08536195     0.43859787    -0.64783306     0.25638021
O      -7.54544830     0.09933015    -5.79986294    -0.45993380    -0.18291784    -0.67962122
O      -3.93103931     8.66783576    -6.12853234     0.26447972     0.14417430     0.14160498
O      -1.95933898     4.06144294    -3.96097085     0.61308695    -0.35152602    -0.48611810
O      -9.68851046     4.57043307    -3.94835067    -0.23046351    -0.28539465    -0.31274266
O      -5.78835318     4.44222902    -4.02044633    -0.01985601     0.19948153    -0.12816932
O      -5.76551718     4.40976855    -7.90330358    -1.37605121     0.17544259    -0.68749653
O      -1.95385777     0.21402617    -3.96089893    -0.07923629    -0.39224259     0.58785857
O      -6.02826206     8.28845356    -8.10880313     0.44029866     1.60951338     1.07762909
O      -9.72812133     8.25552743    -3.97866130     0.46301393     0.54176137    -0.49506755
O      -5.88637854     0.58831173    -8.08508002    -0.28229459     0.35781046    -1.04160686
