# total energy = -630.42934404 eV

CRYSTAL
PRIMVEC
        0.00279571     0.02951795    -7.98606283
       -7.83802570     0.01298533    -3.99532603
       -3.92160916     8.71933433     0.00634407
PRIMCOORD
56 1
Li     -3.84162568     2.36631177    -1.90422007    -0.74924573    -1.05971491    -0.01863641
Li     -4.12127361     2.18363908    -6.04507985     1.92925548     0.20736044     0.31546646
Li     -7.88787800     2.47972391   -10.00924731    -0.03813157    -0.25985285    -0.10566984
Li     -7.82131969     2.22950876    -5.95755202    -0.12482276    -0.10890554     0.03474255
Li     -3.92610483     6.54209489    -1.84215628     0.27917146     0.02310475    -0.54468224
Li     -3.89023011     6.29594643    -5.84971807    -0.01291148    -0.29631498    -0.06758267
Li     -7.89653614     6.37649048   -10.01382644    -0.02975010     0.58277660     0.87621806
Li     -7.75263922     6.64247245    -5.77475465    -0.10527315    -0.12503221    -0.70401663
Ti     -2.02065986     2.25669015    -3.98964144    -0.25945159    -0.79240875    -0.41239718
Ti     -5.77307396     6.60095517    -7.95573468    -1.00385233    -0.32081345     0.62630709
Ti     -7.81701878     4.45685222    -7.80904657     0.57294440     0.68918783     0.70118442
Ti     -7.72353249     4.44679205    -3.79241142    -1.26197464    -1.03352531     0.57578019
Ti     -3.74264587     4.28338509    -7.74993253    -0.99005657     0.63205838     1.31676888
Ti     -4.08581217     4.36160136    -3.72045996     1.51307473    -1.10709595     0.30436282
Ti     -6.12541038     8.60527515    -2.12864977    -0.42967335     1.20507623     0.33411690
Ni     -5.92056806     2.45476155    -7.97045033     1.12768588     0.64457835    -0.58334540
Ni     -5.91513461     2.18771975    -4.06658204     0.34990372    -0.30176226     0.28291802
Ni     -9.79431242     6.47850264    -7.86860413    -0.39332223     0.58624672     0.32421662
Ni     -9.70741881     6.45694360    -3.99296525    -0.55846179     0.30785615    -0.13322613
Ni     -2.07183407     2.15592414    -7.93499370     0.95045440    -0.25300170    -0.45133094
Ni     -5.80120740     6.76214812    -3.99345262    -0.45174893    -1.42493953     0.16584003
Ni     -5.73584162     8.68482141    -6.00891440    -1.77023948     0.55619092    -0.44228902
Mo     -6.04498537     0.05929264   -10.26324747     1.09134597     0.32482734     0.00133500
Mo     -9.82602360     8.66396757    -6.37588226    -0.15361939     0.92269962    -0.45978243
O      -2.05072084     1.87342484    -2.01038326     0.77082483    -0.30224964    -0.09883196
O      -2.08030994     1.87280647    -6.07056358     0.87228324    -0.92396900     0.47734382
O      -5.88235607     6.76727669    -1.97406576     0.53269164    -0.94321591    -0.41088190
O      -5.75499788     6.83254079    -5.91758205     0.37303086     0.42818172    -0.41650501
O      -5.83467449     1.96855619   -10.20424012    -0.39412792     0.11623154     0.64280209
O      -5.78268007     1.97326389    -5.87000833    -2.47481093    -0.57285755    -0.16185241
O      -9.92339797     6.96490714    -9.66369334     0.24728618    -0.14535559    -0.07843243
O      -9.81559656     6.79063700    -6.03369217    -0.04161425    -1.09174003     0.38609267
O      -3.93962365     2.39448570    -3.97085139    -0.15338148    -0.84286021    -0.42492939
O      -3.96812818     2.41141885    -7.94815489     0.04309062    -0.39075027    -0.15574624
O      -7.96413683     2.48810136    -4.07159091     0.64193879     0.32832321     0.59783321
O      -7.78156146     2.56028447    -8.00293962    -0.69933160    -1.47371566    -0.02592901
O      -3.97453850     6.21855792    -3.84895915     2.12144363     2.17225544    -0.20699862
O      -3.88013454     6.24710846    -7.95762482     0.28274592     0.79067885    -0.06011220
O      -7.69825682     6.41000371    -3.89255631    -1.26454954     0.02101055    -0.53040682
O      -7.70794191     6.44796810    -7.88633107    -1.26019074    -0.68665310    -0.74670105
O      -3.85782215     4.09865598    -1.97509407    -0.16186943     1.71968819    -0.21120152
O      -3.91647526     4.31970006    -5.94297020     0.14771045    -0.13993793    -0.71674728
O      -8.04524549     4.44297634    -9.96029859     0.77916815     0.30077040    -1.30875407
O      -7.87725106     4.56087888    -6.05007137    -0.34570373    -0.31977915     0.81278305
O      -7.94499692     8.60761240    -9.97047439     0.41558993     0.48794379    -0.35567010
O      -8.04795161     8.60781495    -6.07889207     0.63148450     0.35902616     0.26916538
O     -11.66760789     8.73736863    -6.06839404     0.73430764    -0.16889782     0.00343669
O      -7.80438016     0.19496237   -10.22140756     0.12527106    -0.18464017     0.45431960
O      -1.96681905     4.05853600    -4.02092107    -0.48805994     1.02504494     0.07554245
O      -9.77788464     4.60277533    -3.93421549     1.40550207     0.34370920    -0.72769557
O      -5.87330875     4.62319450    -4.04706787    -1.06743102    -0.11675647     0.07484186
O      -5.84595425     4.39929162    -8.07694418    -0.26519315    -0.04848026     0.25270759
O      -1.91783560     0.08179095    -4.08081255    -0.07164534     0.51308208     0.94762634
O      -5.82145247     8.38861387    -8.06627393     0.19906614     1.41505140     0.24731151
O      -9.74728060     8.33987659    -4.02533198    -0.18318636     0.25206531    -0.04421110
O      -5.81963813     0.64780980    -8.09864323    -0.96085905    -0.73928809    -0.39855319
