# total energy = -630.73337949 eV

CRYSTAL
PRIMVEC
        0.00279571     0.02951795    -7.98606283
       -7.83802570     0.01298533    -3.99532603
       -3.92160916     8.71933433     0.00634407
PRIMCOORD
56 1
Li     -3.94505621     2.13443609    -1.98120097    -0.09173270     0.30266899     0.20141630
Li     -4.02024024     2.20133530    -6.02474520     0.41494131     0.08187917     0.10407736
Li     -7.69458902     2.34167181    -9.97817641    -0.44126636    -0.04388462     0.44111688
Li     -7.89783647     2.18229028    -5.90485950     0.41690722     0.21773926     0.01970476
Li     -3.97740480     6.87838255    -1.83862656     0.04795370    -0.26156815    -0.97852796
Li     -3.96729847     6.63181340    -5.93293919     0.13138093    -0.56116156     0.15090688
Li     -7.76564591     6.55069674   -10.00313757    -0.09418751    -0.21912170    -0.01424272
Li     -7.96941864     6.69351324    -6.01841301     0.27527104     0.00282255     0.61718029
Ti     -1.99423501     2.26985107    -4.07539647     0.43697111    -1.38421027     0.23199687
Ti     -5.82441510     6.47884714    -7.92828219    -0.11034919     0.75938229    -0.73475033
Ti     -7.78419572     4.43725675    -7.68959976    -0.45801692     0.47731229    -0.45963020
Ti     -7.74288313     4.28242814    -3.71151291    -0.83342965     1.63295023     0.09643658
Ti     -3.71252985     4.22735908    -7.79904817    -1.28327642     1.41032919    -0.66213770
Ti     -3.99542343     4.44937229    -3.62886836     0.30639040     0.23753443    -0.99445487
Ti     -2.18529498     0.10636589    -1.99015469     1.17263364    -1.23800231    -0.62170764
Ni     -5.93711556     2.30336856    -7.96359777     0.24726861    -0.30468945    -0.09252169
Ni     -5.90758976     2.19854206    -4.05058151     0.77934356     1.50429186     0.08103915
Ni     -9.77651380     6.45327799    -7.94746158    -0.00932250    -0.24597305    -0.62504011
Ni     -9.78694106     6.64773509    -4.00470498    -0.13585149    -0.16799271    -1.05139999
Ni     -1.88089172     2.01888947    -7.90091732    -0.30524564     0.66452608    -0.80256588
Ni     -5.92176770     6.43831853    -4.03057171    -0.21595574     1.00005222     0.15865868
Ni     -5.87440509     8.70543928    -5.95356327    -0.77660871    -0.69651535     0.06541640
Mo     -9.89532320     8.72045956   -10.30896845    -0.25078885     0.36207171     0.49895164
Mo     -5.93268919     0.15520257    -6.40833155     0.93236916    -0.21478850     0.23086720
O      -1.88100778     1.98698153    -1.96659387    -0.97045219     0.39911611    -0.33577357
O      -1.95213586     1.76607214    -6.05136652     0.02427141     1.43261290     1.28949489
O      -5.90580310     6.89726818    -2.09652868     0.47183988    -0.16784035     0.74173110
O      -5.96797906     6.85272517    -5.96391754     0.63789068     0.26423182    -0.17857258
O      -5.84086200     1.92107062    -9.81397389    -0.68800789    -0.71820086    -0.30109078
O      -5.88057686     2.07437563    -6.11401895    -0.52998086    -0.26671038     0.85104584
O      -9.63922939     6.85765966   -10.14303605    -1.01821032    -0.46377836     0.74604550
O      -9.93358482     6.82878904    -5.91172680     0.72757450     0.40525721     0.13791178
O      -3.86828952     2.53955022    -3.95028762    -0.08019196    -1.46624456    -0.54825064
O      -4.11300024     2.37961124    -8.04965088     0.71884317    -0.39992059     0.56818626
O      -7.78553710     2.32638635    -3.91971072     0.21856214    -0.09019910    -0.30629924
O      -7.88699889     2.51423631    -7.87144843     0.41816477    -0.45868386    -1.06286610
O      -3.99008614     6.29928576    -3.96588847     0.50282649     0.75835361    -0.46754418
O      -3.94578029     6.43541941    -8.06326732     1.01419906    -0.27085202     1.49355904
O      -7.83263800     6.32710563    -3.97061295    -0.29678653    -0.81786521    -0.28289355
O      -7.76680267     6.51824488    -8.01630036    -0.72100633    -1.47871335     0.50112464
O      -4.09167559     4.41712760    -1.91574892     0.41225412    -0.30134605     1.14196404
O      -4.07433451     4.38369664    -6.10713666     0.11405155     0.12155159     0.79044828
O      -7.81483526     4.44783837    -9.93484124     0.26636481    -0.34466666    -0.15723281
O      -7.72645789     4.43955004    -5.95581312    -0.55387369     0.18651606     0.12619076
O      -3.93850895     0.04679224    -2.22896186    -1.95105097     0.39931492     0.68857911
O      -4.12231715     0.02384436    -6.00470489    -0.35903825     0.35496590    -0.09665308
O      -7.72934327     0.13761606    -6.12335830     0.29198361    -0.06400449     0.06658472
O     -11.67198837     8.66635168    -9.97352436     0.92814762     0.02890193    -0.33978857
O      -1.96226381     4.35902614    -4.03246701    -0.09399265     0.20883715     0.39484146
O      -1.90557844     4.06697983    -7.80436790     1.27717535    -0.93726342    -0.77771101
O      -5.88180139     4.18175958    -4.03186875     0.10459308    -0.37321426     0.09365714
O      -5.86857716     4.66077704    -8.05114055    -0.52395923    -0.27836967     0.22573100
O      -1.99514072     0.22980661    -4.00333972     0.34927885     1.73976140    -0.36290036
O      -1.90184009     0.05452461    -8.04586343    -0.02266813     0.03102347     0.26862305
O      -5.89504229     0.32024231    -4.09760890    -0.28716170     0.18092881    -0.15763331
O      -9.68436187     8.31458603    -8.12083135    -0.50618686    -0.58346971    -0.68253401
