# total energy = -630.59892281 eV

CRYSTAL
PRIMVEC
        0.00285542     0.02004370    -7.95977623
       -7.82940539     0.00763210    -3.98158109
       -3.91729101     8.74642787     0.01461334
PRIMCOORD
56 1
Li     -3.88183797     2.31296023    -2.09348137    -0.07618531    -0.51941239     0.87972357
Li     -3.94488231     1.99320489    -5.87896133     0.39018670     0.39589170    -0.53801681
Li     -7.74059839     2.47018608   -10.07857273    -0.25779016    -0.11619718     0.83987821
Li     -7.68208806     2.28321748    -5.88122839    -0.26067601    -0.12824925     0.01348168
Li     -3.87447830     6.51893535    -1.92319522    -0.38177910    -0.01047330    -0.03671624
Li     -3.96437459     6.40707388    -5.86638663     0.30043141    -0.07563863     0.19128166
Li     -7.94203218     6.49546810    -9.98752375     0.13405138    -0.01445675     0.12859809
Li     -7.76358036     6.76265821    -5.73692855    -0.07039584     0.01299944    -0.72414172
Ti     -1.79877731     2.10900206    -3.99376504    -0.68518297     1.00932998    -0.33949009
Ti     -5.90391581     6.62935287    -7.91882911     0.21445687     0.36098201    -0.26878258
Ti     -7.97429094     4.42964060    -7.64033018     1.35210306     0.93224454    -1.09190829
Ti     -7.86778427     4.37121848    -3.75316371    -0.17517182     0.23413037     0.98958014
Ti     -3.82966193     4.30841852    -7.78244599     0.15965853     0.13369916     0.76246589
Ti     -4.02452869     4.36294075    -3.76874988     0.65470621     0.73156244     0.54842377
Ti     -2.16271396     0.00571276    -2.01130607    -0.58595196    -0.64870680     0.06830459
Ni     -5.88450023     2.41844667    -7.93386771     0.92644764    -0.09512533    -0.50743008
Ni     -5.74181261     2.05583048    -4.07295828    -1.29661640     0.41185342     1.00410531
Ni     -9.71331135     6.68245942    -7.86253036    -1.30983456    -0.42176477    -0.78249144
Ni     -9.92503950     6.58062911    -3.96160555     1.40150852    -1.14215331    -0.17410063
Ni     -1.88206304     2.12180016    -7.90778757    -0.02835335    -0.18215310    -0.62797702
Ni     -5.89132668     6.48404016    -3.94229505     0.44149146     0.16836195    -0.07265877
Ni     -1.97761743     0.08130278    -5.92143260     0.73292183    -0.76118124    -0.76352672
Mo     -6.03779391     0.10434561   -10.26389314    -0.84662537    -0.76834009     0.38083953
Mo     -9.76355227     8.63215358    -6.36175690     0.45869656     1.15229978    -0.80535280
O      -1.85005330     1.86587542    -1.96814228    -0.24712200     0.71821968     0.51673527
O      -1.85291898     1.91272011    -6.02240362    -0.79901779     0.17191741     0.34856406
O      -5.91777736     6.79159449    -1.98028100     0.13390101     0.33367432     0.20673629
O      -5.77478725     6.96528878    -5.90587809    -0.87511697    -0.00373245    -0.01593362
O      -5.89386446     1.97343445   -10.12451039     0.57066054     0.44361591     0.02094985
O      -5.80363414     1.88997043    -5.87053062     0.19521973     0.16592995    -0.74256615
O      -9.83116294     6.90466689    -9.73119367    -0.04738920     1.22685063    -0.22740911
O      -9.77564659     6.74318938    -6.01944935     0.45083791    -0.12852276     0.52509724
O      -3.89363308     2.46807490    -3.96584730     0.32829234    -1.87247800    -0.94487131
O      -3.81824490     2.41026953    -7.87490341    -0.20058661     0.13107235    -0.31169396
O      -7.81178018     2.44898844    -4.00135413     0.28113674    -0.68201045     0.40166086
O      -7.79351082     2.49558806    -7.95697522     0.93290005    -0.86129151    -0.31630566
O      -3.93240824     6.40016643    -3.81357753     0.70495190    -0.84762634    -0.66632673
O      -4.00961112     6.36969048    -7.93718867     0.21717870    -0.08967443    -0.26668866
O      -7.79317159     6.24560192    -4.02827650     0.02820332     1.90109352     0.45400250
O      -7.82801561     6.46131835    -7.89189278    -0.08996387    -0.45579430     0.42396791
O      -4.05215543     4.12134782    -2.00201551     0.11804373     1.44788898    -0.06717120
O      -4.04303312     4.42064715    -6.02015244     0.33088275     0.09378058     0.00253696
O      -8.04317570     4.59000966    -9.91108929     0.46395670    -1.26154222    -1.10912346
O      -7.95629417     4.22285322    -5.93576863     0.41621967     0.59803265     0.85280335
O      -3.98206523     0.05443932    -2.15107346     0.16288493    -0.12167118    -0.05353123
O      -7.91417506     8.71452408    -6.07971708     0.51428905     0.08583501     0.76887975
O     -11.47408178     8.74460827    -5.92409577    -0.74709977    -0.10878702    -0.65421939
O      -7.84454631     0.15734804   -10.04263823     2.08575546    -0.43729530    -0.41771199
O      -1.94611612     4.01590468    -3.88988365    -1.61491462     0.74309957    -0.55345861
O      -9.76008510     4.69373189    -4.04122803    -1.80511473     0.00082657    -0.03083475
O      -5.89783157     4.54330010    -4.05999171    -0.32353736    -0.06417721     0.18922084
O      -5.98057885     4.36227166    -8.07190450     0.63569518     0.33719032     0.63910878
O      -1.69575215     0.25890798    -3.93741467    -0.83673881    -1.22050248     0.09520895
O      -5.82230665     8.56335385    -8.01429389    -0.34958392    -0.90373436    -0.19204631
O      -9.75716373     8.46412223    -4.11604671    -0.29020426    -0.15342670     1.43656440
O      -5.66400299     0.57769623    -8.15479694    -1.37248323    -0.22647337     0.58058557
