# total energy = -631.05594137 eV

CRYSTAL
PRIMVEC
        0.00285542     0.02004370    -7.95977623
       -7.82940539     0.00763210    -3.98158109
       -3.91729101     8.74642787     0.01461334
PRIMCOORD
56 1
Li     -3.86156879     2.16007189    -1.92005304    -0.41340693     0.28304160    -0.04840939
Li     -3.99820509     2.24171180    -5.92003454     0.25430718    -0.16115200     0.09846727
Li     -7.84385822     2.19726417   -10.00164963     0.10327977     0.05525492     0.15648234
Li     -7.98694175     2.56350851    -5.91338285     0.85576980    -0.12152034     0.21836779
Li     -3.97613132     6.44058266    -2.11651253    -0.03673524     0.12258374     1.47647550
Li     -3.91744161     6.46178252    -5.93109390     0.02163899    -0.11979577     0.32002821
Li     -7.91428467     6.62970513   -10.04121282     0.10800595     0.03703928     0.83978570
Li     -7.78805146     6.40920249    -5.78170876    -0.37062013     0.01270316    -0.30719221
Ti     -1.86231396     2.21758991    -4.01452758    -1.88404665     0.59182540    -0.53727141
Ti     -5.98261461     6.79160026    -7.77540282     1.65746002     0.05435802    -1.26109823
Ti     -7.72832512     4.39845307    -7.83523307    -0.50010661     0.43777620     1.75963489
Ti     -7.82275640     4.43497950    -3.62823201     0.08771371    -0.43052776    -1.08268967
Ti     -3.89564971     4.30997292    -7.69868658     1.17657866     0.66560757     0.13442924
Ti     -3.92481419     4.34872384    -3.75478547    -0.33608265    -0.91880265    -0.03525746
Ti     -6.02635809     8.73151056    -2.14535855    -0.11532958    -0.45732258     0.08850883
Ni     -5.80657762     2.37782906    -7.97219733    -0.05884153     1.22664074     0.19845584
Ni     -5.93496834     2.24656039    -4.11645304     0.55553566     0.07928283     1.45576433
Ni     -9.79012739     6.45402260    -7.89043342     0.10550729     0.47181672     0.23026330
Ni     -9.77136004     6.56699480    -4.00526021    -0.34508543    -0.28837654     0.17611900
Ni     -1.83069983     2.19465732    -7.97342201    -2.07602538    -0.53233367     0.74219096
Ni     -5.88597413     6.60088796    -3.92473623     0.17548405    -0.38836400    -0.13358922
Ni     -2.01871270     0.05879258    -5.95264391    -0.07445120    -0.16401852     0.07786133
Mo     -5.99373328     0.03941445   -10.21331879    -0.47135188     0.06301716    -0.17049132
Mo     -9.79903002     8.60598160    -6.31731474     0.03828933     1.44627783    -0.87481263
O      -1.94208128     1.90031337    -1.90805332     0.38967539    -0.09285174    -0.59407502
O      -2.03385362     1.86286384    -5.98763271     1.03633334     0.51679096    -0.05502904
O      -5.99488264     6.84265549    -1.97929722     0.62677650    -0.34253591    -0.23254707
O      -5.91056978     6.99100246    -5.86935695     0.01554071    -1.14126044     0.08152147
O      -5.87572037     2.02803146   -10.11666313    -0.42900991    -1.06096596    -0.10982669
O      -5.89404252     1.93702407    -5.89605059    -0.54865417    -0.27427708    -0.90145228
O      -9.79769955     6.82994738    -9.81361911    -0.18064890     1.01459807     0.44527239
O      -9.72675859     6.73611414    -5.94436684    -0.43922355    -0.31281029    -0.58425653
O      -3.87647145     2.34249821    -3.95046865    -0.14357995     0.08213439    -0.38605282
O      -3.74277944     2.38120828    -7.82487565    -0.65131286     0.23039723    -0.96206073
O      -7.88262594     2.44742322    -3.94384510     1.21159218     0.66574662    -0.24071469
O      -7.81813370     2.49899338    -8.00958756     0.69521727    -1.49351083     0.13755879
O      -3.84145538     6.28422952    -3.90524749    -0.11495597     0.39393742    -0.73092492
O      -4.05606638     6.25917861    -7.90237935    -0.15747012     0.84676296    -0.21972571
O      -7.81521966     6.36507432    -3.92516043     0.10545112     0.34954277     0.03188119
O      -7.84614190     6.34619759    -7.92885665     0.05903792     1.01692013    -0.11611284
O      -3.89633971     4.19358707    -2.01568580    -0.11887042     0.44068503     0.54880142
O      -3.96067022     4.31267901    -5.93173052     0.29116476     0.08680393    -0.07824109
O      -7.92114014     4.43645575    -9.83329449    -0.13563076     0.11307369    -0.67347669
O      -7.93544275     4.51107979    -6.04969662     0.37944626    -0.61641211    -0.38402280
O      -4.04115129     0.01567191    -2.13307540     0.86915777    -0.02018980     0.34368741
O      -8.01042391     8.71788963    -5.86672683     0.09130841    -0.05003837    -0.88433774
O     -11.62402853     8.57899820    -6.09049380     0.42175016     0.18821083     0.12476927
O      -3.90942927     8.66350550    -6.07119982     1.60357334     0.76387791    -0.02360521
O      -1.93969230     4.11077257    -4.00358063    -0.36211090     0.01154921    -0.22287624
O      -9.74712672     4.72807036    -4.07886102    -0.41943898    -0.57987930     0.62882388
O      -5.89695372     4.46063207    -3.99561586    -0.48273128    -0.10292617     0.02998926
O      -5.82503889     4.31740318    -7.93956735    -0.05212814    -0.27964979    -0.31190582
O      -1.79521446     0.22800449    -4.02240733    -0.51155436    -0.01021318     0.87191881
O      -5.80313394     8.56552936    -8.01278796    -0.65190927     0.02889233    -0.03559518
O      -9.75201532     8.57041776    -4.05159105    -0.83772113    -0.02017872     0.69592266
O      -5.84798380     0.65011077    -8.08948140     0.00226080    -2.49430286     0.20755146
