# total energy = -630.42573149 eV

CRYSTAL
PRIMVEC
        0.00279571     0.02951795    -7.98606283
       -7.83802570     0.01298533    -3.99532603
       -3.92160916     8.71933433     0.00634407
PRIMCOORD
56 1
Li     -3.85938418     2.60235725    -1.97163605    -0.42726483    -0.84969232     0.12072813
Li     -4.10449777     2.34931415    -5.99455436     0.23094095    -0.33284028     0.04298994
Li     -7.88229787     2.40159997   -10.02966315     0.23412920    -0.06825294     0.12879177
Li     -7.83938915     1.89550661    -5.82271009    -0.47401891    -0.01363644    -0.33675114
Li     -3.84172313     6.53407227    -1.94983793    -0.27161039    -0.22109398    -0.58923856
Li     -3.93073456     6.61174177    -5.71979870     0.34376963    -0.04240503    -0.89370427
Li     -7.89479189     6.28937746    -9.90431989     0.24009850     0.39317397    -0.23435006
Li     -7.59531793     6.41017874    -5.87196494    -0.91182260     0.19109719    -0.12298383
Ti     -2.03621937     2.22834247    -4.06867337    -0.60510643    -0.69661313     0.33589398
Ti     -5.75337064     6.62486398    -7.97060758    -0.61054858     0.42013051    -0.61813339
Ti     -7.94748571     4.29990157    -7.67173059     0.82634273     0.95429385    -0.29056141
Ti     -7.88182778     4.30734520    -3.81938328     0.35662964    -0.25394404     0.84485025
Ti     -3.81321325     4.31787351    -7.73596773    -0.59479432     2.31654090    -0.35647258
Ti     -4.10475271     4.43523814    -3.83650691     1.56589459     0.03065188     1.08165980
Ti     -2.27879423     0.00883692    -2.10222700     0.79997403    -0.40647744     0.04854093
Ni     -5.93271612     2.42342059    -7.94105838     0.68593556    -1.03527420    -0.87219449
Ni     -5.84716376     2.10609646    -3.99084103    -1.20077533     0.93669143     0.02579238
Ni     -9.67079408     6.59374186    -7.90111425    -0.50535026    -0.83103670     0.92183547
Ni     -9.67094026     6.42813557    -4.13225880    -0.99891773     0.70641722     0.65069062
Ni     -1.96652187     2.14974093    -8.01827841    -0.09466078    -0.21102317    -0.19190402
Ni     -5.86067546     6.35390096    -3.98633668    -0.37303550     1.38352312     0.61650877
Ni     -5.85768376     8.71434671    -6.00978218    -0.61446804     0.59869149    -0.20473948
Mo     -5.97945985     0.18512197   -10.13562696    -0.08473524    -0.20654443    -0.17925204
Mo     -9.76610155     8.63189548    -6.35521466     0.69218427    -0.18535145     0.41444625
O      -2.04758776     2.01693890    -2.04589608     1.29097379    -0.24937835     0.04794085
O      -1.94057063     1.83574835    -6.16558433    -0.47799690     0.43198452     1.20411417
O      -5.99435949     6.77476400    -2.08160925     0.53725039     0.13423798     0.27370163
O      -5.83092053     6.86507301    -5.96996326     0.45418791    -0.20758352     0.00245956
O      -5.83073105     2.18941558    -9.98502538    -0.60262287    -1.25356077    -0.38583866
O      -6.01425237     1.93627646    -5.87859737     1.26961956    -0.54084322    -0.67964878
O      -9.68309375     7.07063172    -9.67078882    -0.45551889     0.67539701    -1.03460640
O      -9.68742877     6.68380191    -6.00790105     0.19703875     1.13977683    -0.58612166
O      -4.00944533     2.41581160    -3.98460797     1.45841646     0.00085673    -0.61899407
O      -3.88415564     2.53594666    -8.02847823    -0.12206359    -1.86615000     0.41867976
O      -7.89453106     2.32214633    -4.00373710     0.03578379     0.54656411     0.26778070
O      -7.85286135     2.38824108    -8.05568307    -0.81579647     0.30652417     0.46424918
O      -3.82644798     6.35599773    -3.94171553    -0.04063813     0.05375800     0.11987647
O      -3.88873608     6.39455336    -8.07127184     0.27221481    -0.45465010     0.79700285
O      -7.82883116     6.36876831    -3.90697055     0.47629434    -0.45784122    -0.70041401
O      -7.70989704     6.20331474    -8.02155533    -0.66230527     0.80440926     0.91627138
O      -3.93866212     4.41114747    -2.06109821    -0.32017162     0.55004362    -0.14478181
O      -4.07739390     4.41644845    -6.00159090     0.84431995     0.17106723     0.39549814
O      -7.82416412     4.49108606   -10.01651868    -0.44792038    -1.33143160    -0.79468266
O      -7.93711727     4.49835122    -5.92965568     0.18181571    -0.25975337    -0.41163390
O      -3.98708329     0.32581238    -9.79112261    -1.10555661    -0.67167571    -0.49194959
O      -7.87484313     8.73088268    -6.17462315    -1.53520701    -0.17191758     0.20507866
O     -11.61521806     8.54791377    -6.01613700     1.61343743     0.65677006    -0.41163641
O      -7.78440779     0.14521575    -9.98423725     0.80497236    -0.27748531    -0.30557874
O      -2.07407743     4.21781781    -4.10839525     1.25854386    -1.25222757     0.04172710
O      -9.78102916     4.61712208    -4.12516497    -0.18889431    -0.54942801     0.49033068
O      -5.93557698     4.26140561    -4.11864429    -0.91761296    -0.07083999     0.07953213
O      -5.87870969     4.29653386    -7.93317664    -0.45265392     0.24743252    -0.21559538
O      -2.14361771     0.27208137    -3.96300590     0.41842991     0.57851671    -0.74658129
O      -5.82899478     8.45438908    -8.10265356     0.08466078    -0.32175724     0.38923909
O      -5.68760929     0.09108946    -3.96201241    -0.53043746    -0.25760162     0.01595312
O      -5.83950851     0.52539783    -8.10798453    -0.67498946     1.19530804     0.90585655
