# total energy = -631.25377378 eV

CRYSTAL
PRIMVEC
        0.00279571     0.02951795    -7.98606283
       -7.83802570     0.01298533    -3.99532603
       -3.92160916     8.71933433     0.00634407
PRIMCOORD
56 1
Li     -4.08144116     2.38958130    -1.84349126     0.59758705    -0.09630785    -0.47166354
Li     -3.93220877     2.28030501    -6.12276390    -0.05341262    -0.47910274     1.20559084
Li     -7.78535439     2.42684166    -9.93821360    -0.34706226    -0.03152183    -0.25136554
Li     -7.69129676     2.24058379    -5.96785420    -0.54942254     0.04918947    -0.28980661
Li     -3.88651515     6.51983106    -1.88677081     0.39772002    -0.28479687    -0.73044842
Li     -3.95944845     6.43055792    -5.93087997     0.01119392     0.23189347     0.39662074
Li     -7.93636821     6.59512448    -9.99072470     0.36286085    -0.28883361    -0.09570179
Li     -7.74315089     6.52498373    -5.83225335    -0.58691331     0.11029859    -0.02139017
Ti     -1.98423945     2.07212277    -4.06507246     0.18473515     0.56608611    -0.30967424
Ti     -5.81584387     6.60248935    -8.10514471    -0.93552665     0.24901838     0.71139187
Ti     -7.88998340     4.44448990    -7.65237821    -0.96622470    -1.13237096    -0.68146407
Ti     -7.86242017     4.35247646    -3.76651077    -0.07552185     1.07020252     0.25378891
Ti     -3.90323154     4.41475867    -7.61871565     0.52959363    -0.72072243    -0.84190747
Ti     -3.93813389     4.38556440    -3.76945300     0.01113049    -0.23864701     2.03881312
Ti     -2.19704122     0.07627081    -1.98469267    -1.31537583    -0.09192606    -0.38108390
Ni     -5.84240964     2.47274488    -8.08464419    -0.47467819    -0.16722406     0.59678065
Ni     -5.93827367     1.99590552    -4.07188287     0.93642326     0.21677263     0.81797672
Ni     -9.75730182     6.57875624    -7.90099526    -0.70233898    -0.07261760    -0.41320511
Ni     -9.85720928     6.49274029    -3.95415881     1.74448717    -0.75122614    -0.70606211
Ni     -1.84570057     2.22166004    -8.02172163    -0.68788309    -0.29520837     0.22192464
Ni     -5.80941458     6.49563715    -3.98321910    -0.89740208     1.08766227    -0.23247209
Ni     -5.96594356     8.66979055    -6.06226990     0.13019525     0.56753196     0.73722705
Mo    -10.00808748     8.75471265   -10.21177407    -0.38074451     1.21519121    -0.19195852
Mo     -9.78649586     8.68537699    -6.43747867     1.95508779    -0.00967666     1.14248214
O      -1.96389725     1.92411439    -2.04981211     0.79277486     0.60303288     0.79523145
O      -1.95292563     1.89324817    -6.09978224     0.19536002    -0.93415557     0.31731709
O      -5.85617376     6.80086827    -2.02670824     0.22602196    -0.15537377     0.30494026
O      -5.94584050     6.78372323    -5.96337913     0.78603020     0.65158301    -0.53321615
O      -5.96548000     1.96536077   -10.17275285     0.38979135     0.34705010     0.14401338
O      -5.88029915     1.91954705    -5.85637854     1.07554598     0.34968476    -0.94855282
O      -9.79327589     6.93196668    -9.80421419    -0.01922880    -0.65596734     0.91811098
O      -9.68688212     6.77447411    -6.04118152    -0.80248951     0.07916357     0.07118621
O      -3.86667044     2.38587615    -3.95264350    -0.86978226    -0.17513609    -0.36465006
O      -3.84725138     2.54333937    -7.89355296    -0.32984308    -0.64388321    -1.13864310
O      -7.76455326     2.37891664    -4.09112852    -0.94647093     0.62099281     0.75522328
O      -7.83157603     2.47917688    -8.04760144     0.66854116     0.04632368     0.53908283
O      -3.81172948     6.37033754    -4.02394504     0.07520661    -0.29308922     0.70617456
O      -3.90654182     6.38827080    -7.97014837    -1.11093589     0.13061672     0.28901354
O      -7.85258709     6.47241935    -3.96030700    -0.06621341    -1.70748696     0.51607384
O      -7.88697313     6.36362654    -8.01698058     1.09260589    -0.09906484     0.19134738
O      -3.88984204     4.38717146    -1.92924533    -0.12820272     0.19659123    -1.80477637
O      -3.76253507     4.37587647    -5.87417598    -0.32390046     0.33394071     0.12033002
O      -7.69911624     4.39108571    -9.98867364    -0.25655622     0.07153420    -0.57946662
O      -7.79745362     4.39367952    -5.91461983    -0.01164152     0.12208972     0.08335635
O      -4.01400196     0.21846847    -9.93072906     0.46608495    -0.77086646     0.10057922
O      -4.05090798     0.05228212    -5.98603294     0.08446951    -0.00839798    -0.66626590
O      -7.54126945     0.09915291    -5.93884218    -1.53225960    -0.84786536     0.03196138
O      -3.95715783     8.71474283    -6.06600506     0.74500410    -0.08153549    -0.09079643
O      -1.94052925     4.05211722    -3.96605910     0.24835888     0.23766242    -0.09967668
O      -9.85700159     4.59425315   -11.93191016     1.70726602     0.61856156    -0.22945085
O      -5.83083301     4.60107945    -4.04670269    -0.54980473     0.16383809    -0.08985394
O      -5.86037108     4.35201774    -7.88320700    -0.13784542     1.06918933    -0.33628877
O      -1.96258889     0.10745613    -3.91034463     0.23318029     0.24182548    -0.45797583
O      -5.81742643     8.45402599    -8.03713773    -0.22647310    -0.34533944    -0.03810466
O      -9.70613671     8.36508966    -3.95472114    -0.52083136     0.32603936    -0.35311489
O      -5.90078287     0.62729316    -8.14405181     0.01259101    -0.02634264    -0.72210975
