# total energy = -630.77902289 eV

CRYSTAL
PRIMVEC
        0.00279571     0.02951795    -7.98606283
       -7.83802570     0.01298533    -3.99532603
       -3.92160916     8.71933433     0.00634407
PRIMCOORD
56 1
Li     -3.82093660     2.04785606    -1.89977039    -0.58710290     0.38060129    -0.62249590
Li     -3.97839554     2.06458067    -6.08497156    -0.28671115     0.36043138     0.08814439
Li     -7.63004092     1.95586691   -10.01856986    -1.24346519     0.35070100    -0.03803690
Li     -7.80090201     2.29398848    -5.78034322    -0.28673068     0.07191579    -1.27719757
Li     -3.79981829     6.26068812    -1.96836079    -0.64364414     0.11149282     0.30703715
Li     -3.84108391     6.39475846    -5.84886895    -0.76242113     0.08652191    -0.02450785
Li     -7.85108868     6.66557862    -9.91022466    -0.21899659    -0.34569327    -0.00600082
Li     -7.71773982     6.40794797    -5.86851414    -0.54518563    -0.31146882     0.36211668
Ti     -2.02465064     2.27104778    -4.22697372    -0.94711766    -0.60443456     1.41995544
Ti     -5.92837729     6.60019733    -7.78185887     1.39724831     0.20356247    -0.87124761
Ti     -7.94560272     4.35674656    -7.72324861     0.30741928     0.66957124    -0.23609844
Ti     -7.84401429     4.47562901    -3.63546234    -0.42717717     0.22386937    -1.17813298
Ti     -3.88923724     4.33668000    -7.67502043    -0.14543025     0.86122267    -0.28402145
Ti     -4.14033701     4.37262378    -3.76810290     0.72880082    -0.56187655    -0.27440049
Ti     -5.65569189     8.66863131    -2.10763238     1.33327557     1.14173898     0.21179633
Ni     -5.89922173     2.39505909    -8.07448735    -0.08510257    -0.12475939    -0.15880372
Ni     -5.98692231     2.23468623    -4.10357897     1.37594992    -0.48403618    -0.27261861
Ni     -9.82262442     6.58392061    -7.92808141    -0.14251371    -0.39864874     0.20927975
Ni     -9.80132272     6.43102757    -3.97951893    -0.34040421     0.40048600     0.14427691
Ni     -1.95224743     2.28648902    -8.03488748    -0.12153771     0.03540175    -0.38595377
Ni     -5.96250724     6.78253357    -3.98498114     0.95923623    -0.28880804    -0.12876446
Ni     -5.89218075     8.72265984    -6.00849138     0.80174922    -0.17747342     0.04314834
Mo     -9.79745671     8.65496589   -10.24878681    -2.32466985     0.04996835    -0.46471666
Mo     -9.66813354     8.60126045    -6.22737724    -1.48369701     1.07876026    -1.63197839
O      -1.94231842     1.89599987    -2.03102583     0.20327830    -0.27116255     0.73963768
O      -2.01957691     1.87085323    -6.07815688     0.61142985    -0.19209402    -0.88208153
O      -6.00856542     6.86095767    -2.12542798     0.26529124    -0.91411634     0.33964565
O      -5.80320140     6.76800986    -5.89595287    -0.54794765     0.96018585     0.34072241
O      -5.86103536     1.98642991   -10.16955281     0.10453738     0.32116422     0.51936928
O      -5.94799807     1.96868269    -6.11277587     0.14148301    -0.01406981     0.85661958
O      -9.90603277     6.69744465   -10.00605257     1.36976760     0.92945969     0.67147646
O      -9.82948685     6.70197893    -5.96973679     1.04040330     0.42573021     0.24127823
O      -3.93606830     2.22163485    -4.09733059    -0.03507202     1.36182584     0.05807050
O      -3.93199722     2.45842044    -8.04982826     0.27871296    -0.32706216     0.57055640
O      -7.92464458     2.55144294    -4.02661229    -0.05947819    -0.79177134     1.15595666
O      -7.89217561     2.49854248    -8.07780564     0.62084378    -0.63513401    -0.26392896
O      -3.93041797     6.29461880    -3.90937831     0.08952585     0.55819702    -0.15469909
O      -4.01193060     6.38708308    -7.95404337     0.95612026    -1.23956412    -0.11359602
O      -7.83207195     6.50625627    -3.97286903    -0.68337648    -0.99491555     0.00975856
O      -7.81869073     6.41538518    -7.74057426    -1.06066651    -0.14400336    -1.47728625
O      -3.84030105     4.24717925    -2.06246356    -0.23876174     0.31760177     0.65878804
O      -4.00179398     4.36736301    -5.91287053     0.71769237    -0.19189934    -0.44086162
O      -7.75807704     4.61024711    -9.90505260    -0.29781043     0.23974954     1.22890442
O      -7.81384782     4.41709524    -5.98874876     0.12073856     0.12979621     0.00646900
O      -8.07207235     8.74469504   -10.04899068     1.85483964    -0.55312971     0.72194984
O      -3.97614235     0.10996020    -6.09998841     0.00254233    -1.00315023    -0.04206709
O     -11.59437322     8.60346262    -5.94586458    -0.70328987     0.26728609    -0.57168658
O     -11.69427366     8.73892055   -10.01736211     0.36691274    -0.04913638    -0.26032396
O      -2.04201816     4.14246549    -3.97242799     0.50584048     0.30991095    -0.58714532
O      -9.77254665     4.48410545    -4.04238795    -0.29894215    -0.12590757     0.37679461
O      -5.97574321     4.14831993    -4.01989751    -0.12715562    -0.29203532    -0.08033932
O      -5.80155522     4.40538272    -8.03731452    -1.11758496    -0.21297240     0.12888324
O      -1.94517738     0.25363154    -3.99087245     0.21707054    -0.18102362     0.30871862
O      -5.83696786     8.39977654    -8.04596073    -0.50819783     0.61639304    -0.11017915
O      -5.85994906     0.33778534    -4.14893284    -0.37679058     0.05879463     0.43140566
O      -5.95684355     0.53939440    -8.09874544     0.38598976    -0.38256707     0.83780238
