# total energy = -630.45969120 eV

CRYSTAL
PRIMVEC
        0.00279571     0.02951795    -7.98606283
       -7.83802570     0.01298533    -3.99532603
       -3.92160916     8.71933433     0.00634407
PRIMCOORD
56 1
Li     -3.90418976     2.40003984    -1.91075036    -0.06859035    -0.28168815     0.06826806
Li     -3.93524837     2.41222900    -5.85249439     0.01927283    -0.39139173    -0.37796102
Li     -7.78940360     2.44415099    -9.91800158     0.20343897    -0.23831413    -0.28504173
Li     -7.72843655     2.48941698    -5.90698044    -0.32046970     0.03539240    -0.51014562
Li     -3.90253238     6.41130434    -2.06871641    -0.21112705    -0.08614439    -0.06000849
Li     -4.10494698     6.53365260    -5.78007368     0.57124756     0.02908741    -0.70299203
Li     -7.85999465     6.51678101   -10.03817881     0.09375758     0.06611502     0.26276884
Li     -7.87490223     6.33233780    -5.93850028    -0.50485229     0.29329586     0.30837235
Ti     -1.89643344     2.23360413    -3.94549149     0.22047126     0.06525480    -0.00157445
Ti     -5.81598449     6.69350155    -7.95331010    -0.64944612    -0.91745657    -0.61147486
Ti     -7.86664721     4.51392309    -7.83396638     0.78094395    -0.84341186     0.22860339
Ti     -7.87072284     4.36550431    -3.80537465    -1.13905859     1.02077306     1.38421339
Ti     -3.87397882     4.33936977    -7.76805794    -0.61267228     0.53934933     0.96716893
Ti     -4.16931328     4.29215578    -3.74934085     0.13323492     1.28494359     0.83897987
Ti     -1.70119567     0.06080000    -2.00733717    -0.48086856    -1.11778406    -0.89276934
Ni     -5.79057314     2.37752065    -7.96812005    -1.37904857    -1.10147232     0.45167637
Ni     -5.98447933     2.03031602    -4.04791295     0.02619580     1.17561915     0.68691714
Ni     -9.78786773     6.28160843    -8.09815600    -1.02341854     0.93239424     0.85689004
Ni    -10.00491629     6.65280233    -3.94888496     2.62155238    -0.27589808     0.12219367
Ni     -1.95012024     2.15094635    -8.00064352    -0.10928076     0.31167112     0.26105821
Ni     -6.03602877     6.70361512    -4.10927825     0.47773557    -0.46529662     2.02326029
Ni     -2.01860242     0.08705162    -6.06118509     0.75656646    -0.47958669     0.54402453
Mo     -9.80669725     8.69339947   -10.15091141     1.02846081     0.64945351    -0.76959305
Mo     -5.76455028     0.06221843    -6.32791052    -1.49131699    -0.33841225    -0.88214899
O      -1.88211639     2.07124550    -2.04433797    -0.23391584    -0.80915251     1.01609749
O      -1.82989602     1.90442324    -6.13338061    -0.95508070    -0.02355799     0.36472398
O      -5.92716148     6.73621196    -2.04074136     0.90554237     1.58804753    -0.45872243
O      -6.05484777     6.91681727    -5.94293290     0.10619636     0.72207522    -0.36938692
O      -5.84651610     1.91080532    -9.78171753    -0.01852506    -0.96457978    -0.23966364
O      -5.94008192     1.99734412    -6.07628114     0.54641748    -0.36483289     0.29641943
O      -9.82974179     6.71217478    -9.99040651    -0.36726360    -0.45607284    -1.04618614
O      -9.91299555     6.87365080    -5.85871973     0.51501389    -0.06330777     0.09182953
O      -3.88632199     2.37157056    -3.82361133     0.04300270    -0.25611068    -1.35549652
O      -3.95862406     2.41110852    -7.95744020     0.97207059     0.29781309     0.05759011
O      -7.93963444     2.37992320    -4.02813992     0.42392042    -0.10580844     0.11776212
O      -7.70152635     2.50512359    -8.00875487    -0.99040826     0.33370815     0.16648221
O      -4.02978471     6.24516214    -4.01740478     0.11331262    -0.58805451     0.44454854
O      -3.96703010     6.52683903    -7.82864780    -0.20370776    -0.53469022    -0.59842187
O      -7.91962305     6.35176840    -3.92016369     0.08016705    -0.22102220    -1.14308485
O      -7.88296006     6.41932894    -8.06943501    -0.02666809    -0.67511998     0.67561116
O      -3.87123013     4.37468409    -1.96479386    -0.48187658     0.07543910    -0.59043782
O      -3.95143891     4.28313402    -5.96766758     0.27207599     0.24668144    -0.30829499
O      -7.80782751     4.39434627    -9.97970971    -0.02850532    -0.15431047    -0.68481064
O      -7.71917747     4.40951499    -6.05512181    -0.05066823     0.21784282     0.12887382
O      -7.95920582     8.52391238   -10.02726080    -0.84714827     1.12916584    -0.35970599
O      -4.09274970     0.10621225    -5.95182753     2.36714978     0.26988425    -0.13907994
O      -7.73177601     0.03255031    -6.23130648    -0.98964771     0.27255185     0.82592271
O     -11.60688307     8.52173514    -9.95496052    -0.52505641     0.90314219     0.06999280
O      -1.97267562     4.29322541    -3.89376881     0.11794714     0.48226686    -0.97114012
O      -9.83847345     4.52468254    -4.01931725     0.30890936     0.09371244    -0.08679845
O      -6.01167613     4.00499737    -3.96160812     1.08773049    -0.71588859    -0.40290511
O      -5.80840691     4.80167614    -7.96479746    -0.33010928    -0.71836325    -0.28369244
O      -1.85549733     0.40783009    -3.97378435    -0.50470252    -0.75657545    -0.41831120
O      -5.93023690     8.58955143    -8.11132671     0.28389044     0.89757525     0.45720785
O      -5.98285916     0.14853647    -4.10951303    -0.04187763    -0.19211199     0.69520137
O      -9.72026928     8.11729109    -8.04216115    -0.24986520     0.45673972     0.17726785
