# total energy = -631.04692940 eV

CRYSTAL
PRIMVEC
        0.00279571     0.02951795    -7.98606283
       -7.83802570     0.01298533    -3.99532603
       -3.92160916     8.71933433     0.00634407
PRIMCOORD
56 1
Li     -4.09566060     2.48201364    -1.92962092     0.36395713    -0.63189879     0.29122497
Li     -3.95717776     2.28081067    -5.83018267     0.03582991    -0.11700636    -0.56629237
Li     -7.90253452     2.46302484   -10.00258375     0.30018925     0.04094168     0.15288646
Li     -7.84460055     2.23795546    -5.94409784    -0.04667508     0.01802832     0.01588877
Li     -3.91720043     6.67166439    -1.89609321     0.19772326    -0.21098776    -0.86724319
Li     -3.98793503     6.56865207    -6.01174532    -0.17289512    -0.31048925     0.42062978
Li     -7.96656251     6.24795081    -9.97914344     0.35500604     0.73070963    -0.14445190
Li     -7.70402712     6.48076916    -5.91555331    -0.57220199    -0.04161942    -0.04350507
Ti     -2.02411741     2.13732189    -3.97256190     0.69972048     0.37724611     0.55665692
Ti     -5.92252651     6.61566081    -8.09746805     1.02878563     0.13997153     0.36400032
Ti     -7.74094450     4.34689322    -7.77724503     0.15493922    -0.58964472     0.04384237
Ti     -7.74543401     4.39841273    -3.84977072     0.54619779     0.00220660     0.13276754
Ti     -3.79988808     4.39319684    -7.69499050    -0.37347571     0.85104488     0.44510596
Ti     -3.91579219     4.39700119    -3.77452178    -0.74579407     0.83862457    -0.25213737
Ti     -2.23454017     0.03879996    -2.03566372     1.05677272    -0.05673647     0.89779374
Ni     -5.84088480     2.14075468    -7.83927296    -0.39809465     0.20887449    -0.13087179
Ni     -5.91011880     2.16222940    -3.96609435    -0.18832533    -1.58858626    -0.31912823
Ni     -9.74533657     6.42456185    -8.08618013    -0.54542452    -2.05561010     1.13709130
Ni     -9.81620834     6.47538637    -4.09076426     0.78975967     0.57474942     0.04807916
Ni     -1.98401961     2.38833435    -7.90844215     0.41441229    -0.61166572    -0.79265653
Ni     -5.88332708     6.78859826    -3.99344521     0.15162567    -0.71903990    -0.07967972
Ni     -2.02324368     0.08431386    -6.12436088     0.27988390    -0.29733709     0.49642188
Mo    -10.06114909     8.71230307   -10.15292994     1.18090614     1.95857506    -1.86992808
Mo     -5.81711774     0.03994083    -6.33209317    -0.87812907     0.15470321     0.51293686
O      -1.97133227     2.04093728    -1.99382934    -0.12339382    -0.78384484    -0.20427187
O      -1.88173985     1.93274809    -6.06963450    -0.89395795    -0.03399824     0.25028953
O      -5.94861034     6.68619473    -2.02987043     0.15565352     1.39583615    -0.89449230
O      -5.89603371     6.94190828    -5.99537211     0.00468743     0.21439148     0.55149182
O      -5.90502447     1.80533651    -9.69596454     0.10825407     0.15059383     0.15708969
O      -5.88608397     1.96141418    -5.96452962    -0.17840995    -0.01731228    -0.23209399
O      -9.82783185     6.89966949   -10.12913873     0.31177488    -2.13348223     0.06134222
O      -9.70267950     6.84149287    -5.89042160     0.09194472    -0.71136983    -0.27480986
O      -3.95734471     2.34889297    -3.91558800     0.82685690    -0.21020300    -0.35646363
O      -3.96332813     2.47796836    -7.87822965     0.19044040     0.42684299    -0.04265216
O      -7.86303236     2.45736545    -4.04317380    -0.36524928    -0.77474198     0.51062682
O      -7.79962390     2.40716023    -8.02113836     0.14915292    -0.12637181     0.39717672
O      -3.89415345     6.34134913    -3.92158628    -0.00991921     0.06408304    -0.48892273
O      -3.93693984     6.50886721    -8.04630786     0.63185674    -1.60357227     0.79730615
O      -7.78203399     6.34647398    -3.98955461    -0.21669416     0.20883949    -0.19265113
O      -7.81259762     6.28744653    -7.94273508    -1.06772932     0.54422822    -0.55601916
O      -3.95863408     4.31243742    -2.04721208     0.19334482     0.42093440     1.23681678
O      -3.75143482     4.48007089    -5.88210524    -0.54294330    -0.16553031    -2.36795873
O      -7.88966612     4.44014099   -10.05646090     0.00825198    -0.60941901     0.19831197
O      -7.68920254     4.33460766    -6.03250533    -0.20721416     0.23427224     0.26599409
O      -3.95393894     0.03935073    -9.94017928    -1.49765449     0.08146206    -0.55175198
O      -3.98499933     0.15723812    -6.00862678    -0.02711707    -0.16522347    -0.32988054
O     -11.56961777     8.62294276    -6.11911393     0.85609410     0.97798624    -0.05380490
O      -3.95006732     8.69614006    -5.93615138    -0.19169806     0.12622970    -0.24743630
O      -1.91289800     4.23691877    -4.04569200    -0.26442579     0.42473677     0.27748151
O      -9.73054058     4.46261824    -4.19587422    -1.13554690     0.13520894     0.59031678
O      -5.87403934     3.92581224    -4.00083857     0.55688965     1.52643063    -0.14209442
O      -5.82932366     4.68469949    -8.09482944     0.63233240    -0.89437829     0.53794123
O      -1.86707160     0.29106771    -3.94899517    -0.43741232     0.13602865    -0.19980218
O      -5.84622205     8.50816783    -8.08552620    -0.16318426     0.61832861    -0.07607854
O      -5.90154530     0.13097340    -4.05311268    -0.28809188     0.42942475     1.98506394
O      -9.62142233     8.16512116    -8.09308986    -0.40074618     1.49235086    -0.94553826
