# total energy = -630.41419265 eV

CRYSTAL
PRIMVEC
        0.00279571     0.02951795    -7.98606283
       -7.83802570     0.01298533    -3.99532603
       -3.92160916     8.71933433     0.00634407
PRIMCOORD
56 1
Li     -3.95506464     2.34734643    -1.81514467     0.05608019     0.06160754    -0.05872197
Li     -3.80317641     2.21536484    -6.01074990    -0.27584432     0.22920237     0.42512305
Li     -7.79482734     1.95626026   -10.02855900    -0.23140756     0.29095238     0.54316498
Li     -7.93757076     2.20034906    -5.88170957     0.18643876     0.05827302     0.06896859
Li     -3.77090877     6.52113951    -1.92407830    -0.57117390     0.01039938    -0.30197362
Li     -3.94212953     6.68830534    -5.88132003    -0.37248881    -0.09864057    -0.57981791
Li     -7.96573950     6.65834782   -10.05773198     0.36576174    -0.38293028     0.04940810
Li     -7.95915878     6.51914110    -5.97457540     0.32399022    -0.77599509     0.35779770
Ti     -2.12187073     2.28276763    -3.90923379     2.19998811     0.29151966     0.00807405
Ti     -6.06149771     6.70901334    -7.87345731     1.16995346    -0.33257058    -1.59780369
Ti     -7.74499627     4.20300995    -7.82231346     0.24713316     0.43921167    -0.98829476
Ti     -7.91131754     4.34867967    -3.69496655     0.84149096     0.09907733    -0.25748520
Ti     -3.91559485     4.33310590    -7.65677169    -0.75990583     2.20321069     0.57460067
Ti     -4.05532282     4.47214573    -3.77804889    -0.97475171     0.91532876     0.47675275
Ti     -5.72236976     8.68671696    -2.14109151     1.09873796     0.09422589     0.74937294
Ni     -5.86184464     2.19003971    -7.84566048    -1.13345121    -0.28109130    -0.89181196
Ni     -5.84923754     2.25774643    -3.96986334    -1.17139913     0.12695671    -0.66828987
Ni     -9.78411818     6.27927907    -8.08464153    -0.69700890     0.80192129    -0.50666255
Ni     -9.93056147     6.50115941    -3.98778025     0.80991789     0.33677315     0.49731456
Ni     -1.93040811     2.24934970    -7.88902596    -0.17160789    -0.46105248    -0.54777058
Ni     -5.91675037     6.72584292    -4.12814654    -0.39450464    -0.42149871     1.50350802
Ni     -1.96711722     0.08278251    -6.01431831     0.70380469     1.05789999    -0.26116946
Mo     -5.85119096     0.05618773   -10.25638176     0.46528645    -0.78983669    -0.38428571
Mo     -5.72665576     0.07960194    -6.38244897    -2.06398893    -1.21832022     1.00059573
O      -1.97994102     2.01844464    -1.97799217    -0.60389454    -0.65883197    -0.10078875
O      -1.84297582     1.93165875    -6.00324101    -0.96204667    -0.46562219    -0.21853092
O      -6.01603900     6.86666506    -2.11503041     0.90585614    -0.36611698    -0.61121849
O      -5.95894598     6.98532524    -5.98151691    -0.27028118    -0.65977962     0.19154512
O      -5.89019491     1.90908220    -9.76468089     0.55330512    -0.04535617     0.56114475
O      -6.06996491     1.92095616    -6.00387179     1.62379150     0.60654736    -0.01010496
O      -9.99866634     6.72998932   -10.11886312     1.93163450     0.11816102    -0.21950425
O      -9.71833933     6.90746555    -5.76239805    -0.50288989     0.72963554    -0.99971094
O      -3.93879680     2.43658454    -3.92469966    -0.50721152    -0.25782840    -0.20322151
O      -3.99112430     2.41708015    -7.85695226     0.00618391     0.00948090    -0.50597641
O      -7.86865192     2.34127113    -3.89847122     0.48774580     0.53793209    -0.57130559
O      -7.84261785     2.25887174    -8.02997543     0.60362661     1.15917456     0.69160016
O      -4.03128632     6.39533565    -4.07766002     0.70766931    -1.09851771     0.97993599
O      -3.97712039     6.39718417    -8.04280410     0.01775489    -0.96417294     0.90114852
O      -7.72905382     6.29945042    -4.01900686    -1.32671336    -0.27069028    -0.08679630
O      -7.89740817     6.30439823    -8.11887552    -0.28100889     0.43835573     1.03958686
O      -3.95463283     4.44300516    -1.98731571     0.05266239    -0.46818707    -0.92286596
O      -3.86879123     4.32096488    -5.85600842    -0.26892325    -0.12275071    -1.83179877
O      -7.82320702     4.38581117    -9.94088427    -0.31843963     0.12025622    -0.35667543
O      -8.10119070     4.38541640    -6.14281313     0.63223453     0.14740507     1.51885363
O      -7.94244567     8.63627396    -9.92695974    -0.93729750     0.37818741    -0.05461355
O      -3.96049631     0.22426022    -6.25286664    -0.05589459    -0.24409199     0.30825072
O      -7.72454481     0.03995227    -6.01414498    -0.79855953    -0.25538395    -0.21042597
O     -11.59493828     8.61103563   -10.12390568    -0.44486971     1.17824932     0.19427764
O      -1.92625413     4.29658097    -4.06939883    -1.38704804    -0.22337551    -0.15893755
O      -2.02242692     4.21749515    -7.98009662     0.29625651     0.24567291     0.11076278
O      -5.98204183     4.11791267    -4.18998668     0.66798153    -0.19036526     0.78831998
O      -5.92877655     4.76428064    -8.02537479     1.34426987    -0.83400297     0.67858555
O      -1.91874958     0.36914491    -4.02913832    -0.62116643    -0.39468874     0.09181865
O      -5.85390416     8.57098241    -8.08859716    -0.27448136     0.38861886     0.23894679
O      -5.63636594     0.35661477    -4.04559041    -0.57179540    -0.10061243    -0.38171047
O      -9.92804944     8.15605895    -8.05618923     0.68855980    -0.17509227    -0.14508745
