# total energy = -630.92694866 eV

CRYSTAL
PRIMVEC
        0.00279571     0.02951795    -7.98606283
       -7.83802570     0.01298533    -3.99532603
       -3.92160916     8.71933433     0.00634407
PRIMCOORD
56 1
Li     -3.81426778     2.35520027    -2.03874449    -0.84782032     0.01509359     0.33097875
Li     -3.94281928     2.12511291    -5.96218005    -0.44747527     0.02661231    -0.22037046
Li     -7.88499922     2.23728315    -9.94332675     0.26355939    -0.59082475    -0.54321315
Li     -7.82731433     2.37570225    -5.89515983    -0.03499402    -0.17975708    -0.15098336
Li     -3.90116483     6.43325241    -1.98300822    -0.04131025     0.16192200     0.07976123
Li     -3.99932805     6.60325878    -5.81781820     0.46811631    -0.05857606    -0.39811631
Li     -7.96304469     6.74211141    -9.86632471     0.59709725    -0.29758260    -0.09396668
Li     -7.77465907     6.34996403    -6.04682960    -0.56565961     0.19311835     0.90232332
Ti     -1.91432424     2.32657451    -4.07519024    -0.18428978    -1.11169368    -0.09135790
Ti     -5.78596275     6.62112567    -7.93384227    -0.74753465     1.24071962    -0.36123831
Ti     -7.69983139     4.46928336    -7.84944736    -1.08986206    -0.28848455    -0.12176725
Ti     -7.79026768     4.30909159    -3.72487265     0.94708230    -0.73349442     1.18235888
Ti     -3.76323034     4.36903369    -7.71858629    -0.95182759    -0.98660673     0.28894932
Ti     -3.94790598     4.44125333    -3.79563513    -0.36805008    -0.26042436     0.70336863
Ti     -5.97875668     8.72701479    -2.26281301     0.65093056    -1.17150636    -0.05913944
Ni     -5.95999249     2.30195084    -8.01132412     1.32202704    -0.82043093    -0.25265252
Ni     -5.86660858     2.21402936    -4.10955768    -0.51966955     0.28925702     0.41156454
Ni     -9.89044576     6.79588574    -7.85869624     0.23897518    -0.95497040    -0.24807016
Ni     -9.81579734     6.40640721    -3.82937837     0.11630917     0.24882261    -0.94305377
Ni     -2.06438591     2.19047722    -8.03090371     1.09648521    -0.51139764     0.51447941
Ni     -5.92632685     6.55009752    -3.89197255    -0.11285493     0.03311023    -0.68261866
Ni     -2.04943022     0.03392296    -5.99484704    -0.04093417    -1.16257707    -0.22908467
Mo     -5.88991964     0.06077826   -10.29283710    -1.08475670     0.31462710    -0.80874691
Mo     -9.78364464     8.65050767    -6.30746736    -1.24406648    -0.27444220     1.85981345
O      -1.93765012     1.84261725    -2.00826601    -0.29541225     0.77722131    -0.15583962
O      -2.05105139     1.87783919    -6.01284885     0.44415787     0.08872131     0.07137583
O      -5.91142486     6.78903032    -1.95089428    -0.31326024     0.10518561    -0.01589692
O      -5.86957674     6.88315928    -5.97678585    -0.57258024    -0.12886902     0.18027591
O      -5.91998953     1.98560405    -9.98191899     0.49009112    -0.23440735    -0.22107011
O      -5.92040783     2.02504728    -6.05132983     0.08137452    -0.50636255    -0.14912444
O      -9.80354312     6.88848332    -9.77478369    -0.23329615    -0.36700100    -0.68235108
O      -9.82877673     6.73272191    -5.86248698     0.47399375     0.46454532    -0.62664428
O      -3.97004620     2.31038328    -4.03702054     1.32253410     1.22638601     0.33810748
O      -4.03059247     2.42842134    -8.06024431     0.32930876     0.77845683     0.59554208
O      -7.90155761     2.36886241    -3.97504349     0.22694400    -0.39189094    -0.52619655
O      -7.81175350     2.26066367    -7.93184389    -1.44795966     1.18354457    -0.47318625
O      -4.00452888     6.44105991    -4.00841668     0.35248193    -0.79154938     1.12794850
O      -3.92697245     6.29088311    -8.01954888     0.81405368     1.10393718     0.67035594
O      -7.91412702     6.20000307    -3.98828435     0.33985260     0.65061207     0.69946795
O      -7.89501362     6.38268519    -7.99218776     0.21718305    -0.51736692     0.44220768
O      -3.90959278     4.36697602    -2.00280804     0.01019929     0.32147253    -1.02230494
O      -3.89777796     4.51221965    -5.95850841     0.15870292    -0.24785560    -0.44223182
O      -7.72352819     4.04725173    -9.91053546    -0.59361351     1.47532085    -0.66746346
O      -7.87759019     4.32060744    -6.09544394     0.24930577    -0.03654464     0.10115006
O      -7.93699018     8.68164436    -9.99046268     1.07998522     0.15671347    -0.53097479
O      -8.02062854     8.72999774    -5.90702883     0.20876217    -0.28384003    -0.56496778
O      -3.84345739     8.52409160    -2.07827482     0.30800744     0.86391697     0.01508191
O     -11.58350655     8.66068154   -10.06663812    -0.26418818     0.28503968     0.00623713
O      -2.01294632     4.14288440    -3.99279219     0.77033281    -0.00530300    -0.44203158
O      -1.90978435     4.15736777    -8.00184700     0.14394493     0.11905109     0.00178756
O      -5.81818512     4.12782213    -4.06910175    -1.30958664     0.06037063    -0.05186172
O      -5.82626761     4.60006650    -7.99370996    -0.09060275    -0.01782979     0.16225042
O      -1.97113431     0.16670762    -4.08853028    -0.07345862     0.33722535     0.26125826
O      -6.05267471     8.60330232    -7.85107844     0.69659331    -0.54238697    -0.16168878
O      -5.82463192     0.35632393    -4.15186634    -0.50199373    -0.15916393     1.15462242
O      -5.79288769     0.38848799    -8.09223134    -0.35017133     0.49374172    -0.13457503
