# total energy = -630.98247720 eV

CRYSTAL
PRIMVEC
        0.00285542     0.02004370    -7.95977623
       -7.82940539     0.00763210    -3.98158109
       -3.91729101     8.74642787     0.01461334
PRIMCOORD
56 1
Li     -3.80837430     2.40916172    -1.84191429    -0.40306390    -0.42958825    -0.27477181
Li     -3.95372859     2.34190027    -5.92606680    -0.30452670    -0.42963975    -0.44997612
Li     -7.65869773     2.28069195    -9.97177478    -0.68663332     0.38718401    -0.17219297
Li     -7.86298177     2.13350879    -5.91855483     0.40320923     0.10385578     0.12324035
Li     -4.06134261     6.28939732    -1.96648692     0.28755076     0.02201681     0.27227735
Li     -3.98960756     6.30631572    -5.84497139     0.26728884     0.43889174     0.24197376
Li     -7.87377379     6.36871116    -9.91569934     0.07483663     0.01699712    -0.03268037
Li     -7.83961433     6.68742730    -5.89148967     0.23619168     0.09097433     0.31809242
Ti     -1.82429953     2.24494008    -4.07438527    -0.71363939     0.28004902    -0.30704343
Ti     -5.80789298     6.77211520    -7.97267250    -0.76712358     0.44293298     0.43115225
Ti     -7.73152233     4.44015608    -7.61787561    -0.21875272     0.26999075    -0.39703252
Ti     -7.73461538     4.33916146    -3.82771037     0.32807627    -0.05373995     0.40383632
Ti     -3.88471951     4.37511715    -7.75910772     0.31005292    -1.43825319     1.09561791
Ti     -3.97879806     4.29406542    -3.74436638     0.09147242     0.47661602     0.52765326
Ti     -2.22796510     0.01266950    -2.26584425     0.33978343    -0.06570067     1.13122234
Ni     -5.79257291     2.39115368    -8.03223256    -0.83499904    -0.57548169     0.61570811
Ni     -5.81362241     2.15543796    -3.96361111    -0.73002832     0.32956328    -1.79178494
Ni     -9.78328176     6.56275646    -7.79975776    -0.59342799    -0.21578945    -0.21125155
Ni     -9.80300528     6.20735580    -4.10684612     0.84544375     0.12744525     0.18814853
Ni     -1.87758555     2.22938277    -7.93910447    -0.26273004    -0.31231401    -0.14455891
Ni     -5.85851333     6.69992125    -4.00646653    -0.35833882    -0.63910657     0.71345637
Ni     -2.05783689     0.04424757    -5.96597205     0.38543336    -0.38889072    -0.80307018
Mo     -9.92401538     8.75569294   -10.09695136     0.63084907     1.10884350    -1.57131461
Mo     -9.97490719     8.70541747    -6.20174524     3.41946932     0.11494701    -0.96005947
O      -1.90630279     1.92590070    -2.03397858    -0.49995677    -0.10210425    -0.15928743
O      -1.87812661     1.84524960    -6.02735684    -0.28575595     0.81110123     0.29354414
O      -5.92475224     6.82140402    -1.97089288     0.07721367     0.24688308    -0.58360689
O      -5.82485465     6.96870320    -5.91350166    -0.39402855    -0.62373474     0.24076882
O      -5.84471950     2.01821570   -10.01767502     0.70423175     0.34340979     0.66490337
O      -5.95939339     2.00110690    -6.00451837     0.45970553    -0.31933501     0.52918269
O      -9.78388966     6.99824849    -9.83876939     0.34636914    -2.24475429     1.03241021
O      -9.78468302     6.67820804    -5.96380671    -0.55124671     1.11831944     0.48675198
O      -3.89664868     2.37070620    -4.07211877     1.03172941     0.21180144     0.96343350
O      -3.87303262     2.40225752    -7.88595826     0.18917202     0.59064869    -0.37574120
O      -7.82923580     2.32173378    -4.03753154     0.44720809     0.67337222     0.67965522
O      -7.76654926     2.48636578    -7.93894746     0.30448817    -0.29614469    -0.38998786
O      -3.91427180     6.29067363    -3.74103574     0.47418380     0.44697985    -2.10587309
O      -3.94104377     6.28688578    -8.02834701     0.48920467     0.94857462     0.53833309
O      -7.81672503     6.36232031    -3.91652421    -0.34225082    -0.30997723    -0.70008324
O      -7.77112708     6.42307069    -7.85122260    -0.31902277    -0.52813633    -0.47040585
O      -4.10009752     4.36789459    -1.93024114     0.74341355    -0.50474415    -0.96541241
O      -3.98210082     4.45197340    -5.94646920     0.58078398     0.06943973    -0.81201721
O      -7.70173682     4.44380847   -10.03238431    -0.35742797    -0.23569461     0.59967973
O      -7.70957961     4.47955376    -5.88172253    -0.48852492     0.13600292    -0.59196802
O      -3.99436860     0.09645824    -2.08869897     0.49774272    -0.20810027     0.30429711
O      -4.21105499     0.09871699    -5.91139948     0.05149176    -0.86174365    -0.69379026
O      -7.80654639     0.05840795    -5.99508375    -0.75102525    -0.58684019     0.13159755
O     -11.63436274     8.74600747   -10.07293445    -1.54969238     0.33535613     0.26174791
O      -1.88450717     4.10802875    -4.10261716    -0.46133204     0.89288925     0.53410191
O      -1.91105524     4.23891193    -0.14587861    -0.36050598     0.18047290     0.37169305
O      -5.80177031     4.04038809    -4.07376462    -0.63900483     0.07522834     0.08754668
O      -5.85230422     4.42312696    -7.92108633    -0.04717501    -0.37302297    -0.27362605
O      -1.91934136     0.26172955    -4.08344886     0.04836450    -0.21768983     0.09026406
O      -5.80358506     8.58299940    -7.94867344    -0.43118788     0.15129100     0.14861003
O      -5.81332633     0.26695685    -4.03340082    -0.71972218     0.03551470     1.07512827
O      -5.93616822     0.51132706    -8.07620136     0.19779046     0.24869375     0.30050036
