# total energy = -630.52439001 eV

CRYSTAL
PRIMVEC
        0.00279571     0.02951795    -7.98606283
       -7.83802570     0.01298533    -3.99532603
       -3.92160916     8.71933433     0.00634407
PRIMCOORD
56 1
Li     -3.94284295     2.07221416    -1.95405312    -0.04386512     0.45911626     0.06217559
Li     -3.83206178     1.83781573    -6.20438872    -0.24732975     0.18777529     0.64441956
Li     -7.92697957     2.38322989    -9.89563927     0.18759721    -0.15059153    -0.11739479
Li     -7.71163020     2.08306012    -5.99237941    -0.61829821     0.18279138     0.28515900
Li     -3.82813883     6.32301511    -1.91693770    -0.31412488    -0.07640884    -0.20449201
Li     -3.86311866     6.46099671    -6.08915720     0.32020332     0.04943463     1.00981395
Li     -7.92735451     6.25543628    -9.82776679     0.11163185     0.34856758    -0.33452863
Li     -7.66483317     6.75065427    -5.93813195    -0.60345796    -0.33142513     0.72574748
Ti     -2.03399038     2.18451036    -4.00033951    -0.20737985     0.28959792    -0.12679451
Ti     -5.84167444     6.67156064    -7.91537587     0.11527914     1.07229472    -0.60793741
Ti     -7.86562684     4.46121522    -7.58089471    -0.25302710    -1.01973656     0.07844137
Ti     -7.80558125     4.27278294    -3.69300354    -0.00113318     0.56712585    -0.92179778
Ti     -3.94807298     4.34767653    -7.70941369     0.88514909     0.51117670    -0.48863474
Ti     -3.92830529     4.39265651    -3.84185059    -0.95435037     0.21842194     0.86955532
Ti     -6.08124248     8.62235084    -2.26139539    -0.58312272    -1.41109838     1.50359178
Ni     -5.86718197     2.42654045    -8.06377337    -0.07514351    -0.61381945    -0.15111566
Ni     -5.92256151     2.20977373    -4.10229603     0.58859175    -0.13705161     1.13346846
Ni     -9.80219127     6.55548831    -7.89730439     0.23174979     0.42564722     0.43560782
Ni     -9.68912741     6.46988986    -4.06382340    -0.34910172    -0.80904354     0.36044901
Ni     -1.97533871     2.29869250    -8.04025324     0.45572466    -0.01916176     0.20571667
Ni     -5.83751366     6.56401917    -3.83286942    -0.06488980    -0.80950903    -1.54472717
Ni     -5.84132284     8.72332676    -6.06630332    -0.17045735    -0.70990618     0.94532704
Mo     -6.01688089     0.16346122   -10.24539564     1.06751398    -1.03859179    -0.11559251
Mo     -9.84333510     8.71531471    -6.34194629     0.88548560    -1.50691938    -0.61915201
O      -1.96605969     1.69700989    -1.92478674     0.41362931     2.23731263    -0.95588637
O      -1.94684285     1.81945881    -5.91471961     0.03106213     0.36587377    -0.78262684
O      -5.83294024     6.70958088    -1.98095302    -0.34853426     0.05038997     0.27116339
O      -5.76963274     6.81876674    -5.97421407    -0.09164307     0.40444450     0.16655353
O      -5.96807438     2.14561363   -10.05994462     0.76301602    -1.11664436    -0.35959961
O      -5.78064406     1.92849593    -5.96627809    -0.41974584     0.02544424    -0.25973064
O      -9.69069944     7.00569951    -9.79247405    -1.12592757     0.11919687    -0.09187665
O      -9.78260807     6.75702296    -5.94707902     0.15476988     0.66390899    -0.56704456
O      -3.95326461     2.34988976    -4.02843905     0.90761922    -0.41638467    -0.01616897
O      -3.89707330     2.47012270    -7.99104304    -0.29943168    -0.52251495    -0.31306141
O      -7.89885498     2.30886971    -3.99327985     0.16794787     0.62326623    -0.14181482
O      -7.70940387     2.46804907    -7.93397048    -1.62415270     0.15770923     0.22507984
O      -3.82587331     6.36523216    -3.96386727    -0.33045009    -0.18094541    -0.04567190
O      -3.96849921     6.35446032    -7.99571597     0.93666496    -0.67942875     0.21913854
O      -7.78042732     6.24738312    -3.97014368     0.17781070     0.27994067     0.47012981
O      -7.80955419     6.41959024    -7.84629417    -0.36313177    -0.75815509    -0.48508922
O      -3.96282880     4.29712655    -2.09235948     0.46269120     0.32532236     0.55665447
O      -3.69438156     4.42405735    -5.97703154    -0.63598491     0.20979630     0.06238512
O      -8.15563502     4.28805969    -9.94488164     0.47363091     0.58655094     0.15791560
O      -7.91126934     4.39559022    -5.83633283     0.19415434    -0.27223348    -0.99613251
O      -7.89783024     8.72416820    -9.99224929    -0.28921422     0.88214168    -0.24524578
O      -7.86215460     8.62029294    -6.04309648    -1.81867766     0.54834338    -0.62938074
O     -11.63738505     8.67316554    -6.10999549     0.86315238     0.10547838     0.02817479
O      -7.74493703     0.11239212   -10.08889723    -0.76837856    -0.30312626     0.26921713
O      -1.98666591     4.07585403    -3.88578765     0.94296550    -0.50207784    -0.11519332
O      -2.01266955     4.46618036    -0.11707955     0.29708255     0.13127305    -0.00347621
O      -5.85228431     4.22397734    -3.94003948    -1.07449255    -0.03785992    -0.57809333
O      -5.96600855     4.40893112    -8.07136654     0.93900855    -0.00244512     0.77070960
O      -2.04052156     0.11373586    -4.07484524     0.54390814     0.71787414    -0.53809641
O      -5.69036211     8.49604850    -7.98984471    -0.65643797    -0.21776513    -0.00583785
O      -9.81680357     8.69641489    -4.05306152     0.30088893     0.17623032    -0.16190115
O      -5.97176449     0.45310044    -8.15497941     0.85005212     1.48890304     1.04916737
