# total energy = -631.23327992 eV

CRYSTAL
PRIMVEC
        0.00279571     0.02951795    -7.98606283
       -7.83802570     0.01298533    -3.99532603
       -3.92160916     8.71933433     0.00634407
PRIMCOORD
56 1
Li     -3.84486381     2.27474091    -1.92165234    -0.25525025     0.28053335     0.21866559
Li     -3.86007115     2.01778377    -6.03932480    -0.22046931     0.75392356     0.29615054
Li     -7.69423485     2.25442235   -10.15579756    -0.69824422     0.13040571     1.05997819
Li     -7.81500844     2.19254136    -5.92661048    -0.09512198    -0.06206737    -0.01112593
Li     -3.87921186     6.50510319    -1.80952953    -0.01032060    -0.00094061    -1.13312835
Li     -3.90395571     6.38920061    -6.04089107     0.01251483     0.13981476     1.07217757
Li     -7.92287251     6.52424805    -9.99803893     0.42110066    -0.44214431     0.03308886
Li     -7.82612519     6.53639281    -5.90828436    -0.44238075     0.03033525     0.22054392
Ti     -1.96526341     2.34816234    -3.96712411     0.54199449     0.78220495    -0.27388599
Ti     -5.88839999     6.78065543    -7.86991498     0.00986219    -1.47540671    -0.12752253
Ti     -7.71334132     4.43887495    -7.70802803     0.38637728    -0.91477877    -1.41952185
Ti     -7.98236499     4.35863344    -3.79987709     1.56783629     0.00537839     0.54723911
Ti     -3.87874708     4.47016052    -7.76400926    -0.89124095    -0.88927747     0.42743870
Ti     -4.05953400     4.42227942    -3.71722587     0.39731873     0.66148199     1.08408521
Ti     -6.12281213     8.64435588    -2.28450517     1.44812114     0.65957627     1.00414301
Ni     -5.85807036     2.20189528    -7.94033171     0.29889165     0.06500065     0.53695978
Ni     -5.90467450     2.27245109    -3.95375179     0.48673185    -0.89664127    -0.87754600
Ni     -9.77995779     6.36285099    -8.01195927    -0.56040710    -0.10944095    -0.14224081
Ni     -9.79709840     6.53495819    -3.99753970     0.38212097     0.37029329    -0.42149822
Ni     -2.02324071     2.21408461    -7.94780569     0.86075663    -0.21006566    -0.40049022
Ni     -5.89625936     6.49892971    -3.94249885     1.32093910     0.46634421    -0.86613262
Ni     -2.00556413     0.03679485    -5.92827049     0.35110238    -0.04975028    -0.07772342
Mo     -9.87151208     8.74005514   -10.28460660    -0.80316268    -0.01271683     0.07864050
Mo     -5.85509869     0.03769701    -6.31956210    -1.03554393    -0.16766028    -1.35841492
O      -1.87698971     1.89542623    -2.03514313    -0.98089653    -0.18667933     0.50976377
O      -1.89547086     1.85887349    -5.94360652    -0.31292272     0.27218833    -0.71337179
O      -5.82356616     6.77899091    -2.11544387    -0.41806008     0.03303806     0.89585174
O      -5.94664262     6.87586753    -5.88985442     0.53877661     0.12173901    -0.70299925
O      -5.79060146     1.88160807    -9.82269805    -0.20179629     0.01250051     0.46571892
O      -5.86746835     1.94210397    -6.05223664    -0.00099428     0.41815214     0.24134510
O      -9.79850188     6.81078209   -10.12519350     0.01822008    -0.47731742     0.43172647
O      -9.80972861     6.79212636    -5.83515604     0.58283954     0.27830009    -0.14456912
O      -3.85817984     2.41181604    -3.90803311    -0.55742538     0.16196726    -0.31185328
O      -3.90906384     2.51199559    -7.93836659    -0.64044063    -1.16473208    -0.31580889
O      -7.91041801     2.30361771    -4.02087057     0.31650135     0.94781795     0.34296548
O      -7.84108890     2.46848469    -7.91341517     0.69879705     0.06030547    -0.80824475
O      -3.90415244     6.35268733    -3.98959587    -0.23495645    -0.85396546    -0.04523938
O      -3.91513005     6.45244457    -7.97854958    -0.06633015     0.26079444     0.84384418
O      -7.70190411     6.34888787    -3.99133743    -1.78604996    -0.81301630     0.01778794
O      -7.87704903     6.32593076    -7.97612655     0.52636407     0.64588864     0.11904110
O      -3.90503359     4.36190685    -1.90131342    -0.11884397     0.00327970    -1.79108608
O      -3.89285416     4.33667341    -5.99183903    -0.00597662     0.52609420    -0.30217368
O      -7.78495524     4.42293817   -10.02379988    -0.39446661    -0.44525946    -0.30474958
O      -7.88178344     4.29484907    -5.99999329     0.28712856     0.50226303     1.05736973
O      -7.93416499     8.69129729    -2.32222051     0.43982160    -0.23470333     1.01912705
O      -3.99295550     0.13863038    -6.01170209    -0.04997729    -0.79471540    -0.05657070
O      -7.68830828     0.03240057    -6.18932132     1.12848847    -0.08685421     0.18505752
O      -7.69801280     0.05336122   -10.02302970    -0.61330080    -0.14846109    -0.02189961
O      -2.03401965     4.39912477    -4.09781114     0.99449406    -0.56500195     0.45794486
O      -1.97870150     4.29122015    -0.11357288    -0.01597959     0.05415742     0.30302173
O      -5.88931675     4.09863923    -4.02627228    -0.80486817     0.22063876    -0.11197047
O      -5.81413558     4.71267614    -8.03399180    -0.89255805     0.13182422     0.45706163
O      -1.88403389     0.39990256    -4.00744893    -0.04830113    -0.67093604    -1.08557224
O      -5.90537316     8.54259494    -8.09001389    -0.22185722     1.11843444    -0.05045353
O      -5.87748119     0.25169931    -4.09027612    -0.43816321     0.42439294    -0.08810790
O      -9.59725771     8.16458868    -8.09296729    -0.46416109     0.70254311     0.10422755
