# total energy = -630.78769377 eV

CRYSTAL
PRIMVEC
        0.00285542     0.02004370    -7.95977623
       -7.82940539     0.00763210    -3.98158109
       -3.91729101     8.74642787     0.01461334
PRIMCOORD
56 1
Li     -3.77443283     2.19705031    -1.98355482    -0.56897882    -0.08988817     0.45370291
Li     -3.76337750     2.21749765    -5.93314036    -0.77521731    -0.12747512    -0.34583058
Li     -7.80575116     2.56595800    -9.98218410    -0.06844610    -0.53093382     0.14362759
Li     -7.68262575     2.27815438    -6.03924085    -0.30861521    -0.26796520     0.63375155
Li     -3.86404193     6.34625722    -2.08333843    -0.07961379     0.92632465     0.77782759
Li     -4.00811952     6.35823357    -5.95479104     0.59997423     0.17316965     0.42657085
Li     -7.91579532     6.54979686    -9.93014374    -0.05096584    -0.17169663     0.01464270
Li     -7.75697472     6.60223641    -5.88450033    -0.58781382    -0.06595376    -0.00336825
Ti     -1.98060906     2.05752862    -3.98731398     0.60860483    -0.73285004     0.03738727
Ti     -5.87270344     6.39154153    -7.93660545     0.21419876     0.96976738    -0.34575520
Ti     -7.93596217     4.34656857    -7.72915266    -0.71675379     1.04043341     0.95081478
Ti     -7.82533332     4.44783408    -3.82325354    -0.29902581     0.54705703     1.35037962
Ti     -3.81212205     4.31218648    -7.68404896     0.26594876    -0.37800939    -0.14229404
Ti     -3.98587671     4.40684120    -3.76563776     0.21260743    -0.15937118     0.36101426
Ti     -6.12668100     8.53634928    -1.93017463     0.19791859     1.55687510    -0.16406949
Ni     -5.84224307     2.46893014    -8.00273940     0.29334628    -1.04228106     0.10785353
Ni     -5.84670983     2.23566901    -4.05570739     0.34851234    -0.20707579     0.07929946
Ni     -9.80502320     6.57097805    -7.85569405     0.78279454     0.41161376    -0.22811681
Ni     -9.78336116     6.57026967    -3.97785273     0.05695669    -0.60122074     0.13870935
Ni     -1.80975737     2.17520871    -7.99178638    -0.56348044    -0.01550817    -0.04290678
Ni     -5.86286900     6.55521990    -4.05731036     0.04881115     0.39756949     0.74583388
Ni     -5.92644835     8.67123287    -6.00663453    -0.02521259     0.22954304    -0.06687192
Mo     -6.12702037     0.18641492   -10.15277384     0.28899855    -0.91766758     0.00558433
Mo     -9.73313778     8.71783604    -6.31657889     0.09107260     0.25008806    -0.39158929
O      -1.90975956     1.66984578    -1.98468336     0.69284786     1.80786786    -0.42943080
O      -1.93603396     1.83781461    -6.02389214     0.03427345    -0.40199909     0.06511400
O      -5.88236649     6.72135844    -2.05837476     0.34048590    -1.44739026     0.02113442
O      -5.90905150     6.70151178    -5.98349963     0.63502886     1.13890055     0.12832404
O      -5.86083071     2.12129251   -10.06268927     0.35972402     0.10387226     0.04706834
O      -5.74167264     1.91602517    -5.91553597    -0.14208398     0.87328707    -0.02416515
O      -9.80044522     7.06635428    -9.83469613    -0.55463641    -0.19368743     0.31733050
O      -9.70342432     6.85090378    -5.91395404    -0.42582543    -1.01511113    -0.28859975
O      -3.91269394     2.41198859    -3.97321045    -0.08750082    -0.33239993     0.10855659
O      -3.82167582     2.38006043    -7.92975663     0.02861296     1.02467017    -0.38275045
O      -7.72541760     2.49500279    -4.09233831    -0.66934011     0.16549137     0.56051393
O      -7.82676145     2.45925357    -7.93786470     0.33128403    -0.72810354    -0.39665760
O      -3.80643869     6.41104361    -3.97208368    -0.42352202    -0.57119307    -0.27960016
O      -3.92784386     6.38308336    -7.93119944    -0.23084417    -0.92197016     0.17004996
O      -7.83337379     6.52525354    -3.95025483    -0.42595205    -1.57838613    -0.02391206
O      -7.84939249     6.37241499    -7.89428258    -0.04590051    -0.66656292    -0.50620386
O      -3.96123108     4.54792786    -2.00467381     0.14642447    -0.98804163     0.00011857
O      -3.73618366     4.40699399    -5.92221163    -0.41592028     0.16000526     0.00967801
O      -7.80269838     4.43456401    -9.91390742    -0.43887736     0.35404623    -1.49872734
O      -7.97120902     4.42273510    -5.95271884     0.50848547     0.18167804    -0.26121273
O      -7.86473769     8.76482157    -9.94500623    -1.11078991     0.09740670    -0.01067182
O      -7.87071565     8.64507866    -5.98470348    -0.68049290     0.37586463    -0.39198775
O     -11.46958739     8.70733133    -5.92097926    -0.18139370    -0.01405385    -0.64650248
O      -7.85013290     0.28697331    -9.87911925     0.43372507    -0.94597602    -0.64274316
O      -1.99115379     3.97116789    -3.80748358    -0.29122898     0.40834898    -0.88337390
O      -9.80134326     4.47393956    -3.96697324     1.12339183     0.57476291    -0.55829295
O      -5.88826764     4.55558826    -4.05642099     0.04687987    -0.06289596    -0.39707139
O      -5.90638698     4.34462102    -7.84856473     0.84599510     0.72026039    -0.30325935
O      -1.92408597     0.08767443    -4.10858762    -0.16954947     0.17245056     0.72621209
O      -5.83735304     8.28857191    -7.98356220    -0.04482450     0.63807872     0.44575142
O      -5.99154648     0.17320695    -3.99456162     0.60020938    -0.12945804     0.45292987
O      -5.86877001     0.59481016    -8.11608573     0.36279770     0.38624162     0.44422478
