# total energy = -630.85175062 eV

CRYSTAL
PRIMVEC
        0.00279571     0.02951795    -7.98606283
       -7.83802570     0.01298533    -3.99532603
       -3.92160916     8.71933433     0.00634407
PRIMCOORD
56 1
Li     -3.91126632     2.16933385    -1.90153121    -0.08730460    -0.15689400     0.18904641
Li     -3.84436623     2.37275421    -5.93666089    -0.50999559    -0.20636533    -0.48474917
Li     -7.80845432     2.26782070   -10.00258701     0.15414710     0.02137155     0.25060294
Li     -7.80673507     2.47715188    -5.88846631     0.04716491    -0.60607269     0.14210112
Li     -3.93275233     6.43030164    -2.01649324     0.14156454     0.20500904     0.36669704
Li     -4.02978597     6.55589665    -5.97431620     0.52774354    -0.11248411     0.29146463
Li     -7.80337575     6.44957714    -9.89600243    -0.06043763     0.28320126    -0.11647764
Li     -7.96231914     6.59013080    -5.90790161     0.23040192    -0.28062947     0.40708581
Ti     -2.06930753     2.33247179    -4.05599569     0.65616180    -0.06244335     0.31717601
Ti     -5.98781833     6.78715626    -7.82397522     0.20267211    -0.90035129    -1.58077050
Ti     -7.75630086     4.29143985    -7.71434662     0.69360426     1.05915082    -1.13227342
Ti     -7.92684893     4.37905748    -3.71690586     0.15427927     0.15386402     0.87407360
Ti     -3.89850782     4.38087951    -7.77724452    -0.55522885    -0.56276391     1.27532873
Ti     -4.18403605     4.46595824    -3.76207863     0.03998601    -0.58909671    -0.21555388
Ti     -1.78534407     0.06141355    -2.20529256    -0.61866662    -1.41505293     0.19306499
Ni     -5.85166512     2.18596296    -7.95671444    -0.24335704    -0.17444076     1.53385381
Ni     -5.89532080     2.21407816    -4.09737320    -0.58292634     0.63781545     0.66902184
Ni     -9.83034949     6.24439651    -8.15602435     0.09202486     0.89723774     0.25076915
Ni     -9.86378428     6.58591365    -3.93847986     0.58481198     0.03572793     0.34533122
Ni     -1.95113973     2.10735933    -7.96680579    -0.02344876     0.14491892     0.25351442
Ni     -5.91792329     6.67140356    -4.02800130    -0.83995943     0.00135305     1.55475842
Ni     -1.92650297     0.06329583    -5.99354253    -0.07542945     1.67255114     0.44144908
Mo     -5.93679724     0.06568690   -10.23792079     2.01766171    -1.16716886    -1.54295893
Mo     -9.74066017     8.72477766    -6.39201672     1.09839655     0.69460615     0.43426840
O      -1.95586636     1.93385591    -1.91461284    -0.08808944     0.09165081    -1.11008557
O      -1.88344804     1.95661185    -5.99643801    -0.77310799    -0.49312203     0.56900215
O      -5.88578091     6.81363678    -1.97687789     0.42166517     0.87146794    -0.28231676
O      -5.95374335     6.99786079    -5.86885185     0.13177135    -0.98513667    -0.84173124
O      -5.87640366     1.84326334    -9.72620403    -0.11785040     0.90971447    -0.35482254
O      -5.76975264     2.06297058    -6.06862436    -0.99100470    -1.33917450    -0.26049563
O      -9.95827281     6.79299957   -10.13407112     0.75777437    -0.48015489     0.64379228
O      -9.81122104     6.93130329    -5.71369746    -0.21243939     0.23786159    -1.26158295
O      -3.95719257     2.38729356    -3.85405142     0.77738649     0.28685741    -1.03948615
O      -4.02195676     2.30047244    -7.94024025     0.70094536     1.48144813    -0.32201349
O      -7.87258551     2.28768014    -3.95988959     0.79886931     0.93482407    -0.42966375
O      -7.82885455     2.36584431    -7.95638232    -0.55945149     0.77191411     0.28663991
O      -4.00769350     6.32251734    -4.03632621     0.21871173     0.48891690    -0.05131574
O      -3.87842150     6.27979090    -7.95095920    -0.58339243     1.19242436     0.00003255
O      -7.90909734     6.34490324    -3.82909219     0.02135584    -0.34029728    -0.97646398
O      -7.84516210     6.29857965    -7.85595220    -0.55333517     0.50605340    -0.76382405
O      -3.78811127     4.51864165    -2.04115424    -0.22297872    -0.74997018     0.90882774
O      -3.79735667     4.36288374    -5.94037617    -0.26831967    -0.22487093    -1.27253960
O      -7.64578972     4.34638642    -9.93957881    -0.82621356     0.06544921     0.19506913
O      -7.71189177     4.43905160    -5.98353882    -0.32893611    -0.36336034     0.98419725
O      -7.93363589     8.63167310    -2.07117661    -0.94376438     0.34867073    -0.04834432
O      -4.02160031     0.06896032    -6.12511090    -0.48235617     0.04068016    -0.03800191
O      -7.70412460     0.07259346    -6.16671363    -0.48305084     0.18738195     0.15995754
O     -11.66679252     8.71524771   -10.00548764    -0.25070130     0.13835835    -0.10244399
O      -2.02599883     4.37675313    -3.98741750     1.21025126    -1.71792388    -0.25716446
O      -1.91248372     4.03671714    -7.96828548    -1.25972613    -0.30569777    -0.25102022
O      -6.01441698     4.20800561    -3.91160738     1.20591228    -1.13986314    -0.85544099
O      -5.86199946     4.77382179    -7.91268523     0.61886658    -0.11239376    -0.04365538
O      -1.90035933     0.26825445    -4.06611750    -0.40432558     1.11916312     0.69686803
O      -5.87708726     8.69057686    -7.99644638     0.14400736    -0.34411084    -0.06808878
O      -5.86424182     0.38326376    -4.10612955    -0.23865215    -0.35673622     0.39295076
O      -9.74684888     8.11102729    -8.15493241    -0.32795585    -0.14857273     0.98987005
