# total energy = -630.36714586 eV

CRYSTAL
PRIMVEC
        0.00279571     0.02951795    -7.98606283
       -7.83802570     0.01298533    -3.99532603
       -3.92160916     8.71933433     0.00634407
PRIMCOORD
56 1
Li     -4.01841480     2.13750751    -2.01014688     0.42698823    -0.06455021     0.56847101
Li     -3.96635992     2.27497470    -5.93874691     0.01427005    -0.23515314    -0.09809958
Li     -7.81305866     2.37767793    -9.85321078    -0.32701625     0.11888521    -0.59147184
Li     -7.87842934     2.18147465    -5.99383106     0.32008443     0.12594398     0.60526646
Li     -3.82347256     6.32503776    -1.87420307    -0.34755759     0.22797402    -0.17507382
Li     -3.79594380     6.31856743    -6.04362984    -0.43610061    -0.03514453     0.25806176
Li     -7.67858718     6.44440298    -9.91463327    -0.50778572     0.13708456    -0.22126606
Li     -7.97050305     6.42227690    -6.07836825    -0.00471092     0.12903989     0.95405730
Ti     -1.99061318     2.47593959    -4.02121243    -1.13130973    -0.75537372     0.14374827
Ti     -5.91993036     6.81603666    -7.83293730     1.03418307     0.16362944    -0.48381580
Ti     -7.64819525     4.39475243    -7.70957174    -0.60225005     0.16026720    -1.34607528
Ti     -7.92391449     4.42419494    -3.71867371     1.29043058    -2.00659009     0.85487615
Ti     -3.97702885     4.25847952    -7.75099144     0.14842733     0.09417891    -0.00191033
Ti     -4.19781938     4.45876905    -3.70754225     0.61868482    -0.68341297    -0.10981102
Ti     -5.80396681     8.67990903    -2.27994457    -0.79914198     2.17320134     0.72528626
Ni     -5.99052308     2.11308072    -7.85864852     0.86378396     0.04864796    -0.12258049
Ni     -5.90424109     2.10183105    -3.89188839     0.05765018    -0.02422737    -1.26687537
Ni     -9.77953567     6.37142887    -8.20665646    -0.73623265    -0.92774772     0.81736866
Ni     -9.71395821     6.44836795    -4.01349614    -1.48086239     0.71539570    -0.07550000
Ni     -1.89473024     2.10864207    -7.96920786    -0.30115176     0.22923127    -0.68276510
Ni     -5.95027281     6.82526187    -4.07341857     0.16341235    -1.15298859     0.66743663
Ni     -1.91655300     0.07643714    -5.93054421    -0.65278161     1.37862328    -1.05027454
Mo     -5.96866172     0.07101751   -10.21584203     3.00427846     0.29163977    -0.84403390
Mo     -5.81952419     0.03834150    -6.30380061     0.04961052     0.33912009    -0.61628747
O      -1.92695763     1.96753333    -1.98568929    -0.35669143    -0.43612739    -0.23411231
O      -2.00448536     1.97183049    -6.02626674     0.83565360    -0.82257464     0.31218861
O      -5.76830613     6.85490794    -2.09433115    -0.68919800    -0.71278362    -0.19880395
O      -5.92996594     6.93327618    -5.91643870     0.02784404     0.20455590    -0.50566258
O      -6.00351858     1.96660391    -9.73226709     0.76469215    -0.72538988     0.00661814
O      -5.89368768     2.06713103    -5.98494590    -0.07590294    -1.56709740    -0.27437974
O      -9.81265647     6.77319691   -10.13990250     0.62856685    -0.17250125    -0.27415073
O      -9.85407825     6.79631601    -5.84767614     0.77193059     0.79115189    -0.52206415
O      -3.89529417     2.27805408    -3.99561367     0.09475776     1.15767144     0.76182988
O      -4.12402623     2.28505108    -7.97422867     0.53170773     1.30553671     0.18224744
O      -7.77768198     2.37464235    -4.01722646    -0.65597795     0.16621944     0.71117116
O      -7.87882798     2.41168488    -7.93998232     0.21719972     0.70371659     0.10714225
O      -4.11869381     6.29953921    -4.12551348     1.12458707     0.05161107     0.35641888
O      -3.94395414     6.37643249    -7.99074444     0.42191738    -0.57661692     0.89937025
O      -7.83759344     6.27006449    -4.04826191     0.46903376     1.08883254     0.29526009
O      -7.84832878     6.39907115    -7.94114113     0.33110490    -0.31470859    -0.32960274
O      -4.01582525     4.39739966    -1.91810788     0.52426616    -0.41622989    -0.90832224
O      -3.85371619     4.23964204    -5.94422301    -0.18026556     0.58093603    -1.66095580
O      -7.82093554     4.43771201    -9.86683013    -0.20656106    -0.02204802    -1.66286163
O      -7.82712110     4.41427878    -5.99159695     0.01893126     0.11753096     0.51473085
O      -3.96891918     0.08356868    -2.17206431    -0.26948825    -0.45253277     0.23797519
O      -4.01171542     0.14676208    -6.01311094    -0.83022629    -0.50649008    -0.41189358
O      -7.68093703     0.16169503    -6.15176151    -0.04413028    -0.40870389     0.25099988
O      -7.69479057     0.07164552   -10.13677209    -1.80981653    -0.28219232     0.16326899
O      -2.03489802     4.35220504    -4.09286464     0.47658215     0.21737901     0.54603568
O      -1.87690959     4.08699427    -0.12149186    -1.83148935    -0.37955846     0.65639936
O      -5.91483490     3.93125479    -4.00437879    -1.04608871     0.62760761     0.24847536
O      -5.86520908     4.76378748    -8.03504554     0.78247258    -0.27559353     0.65847195
O      -1.71712458     0.31301110    -4.07248908    -0.59553298     0.17194301     0.21552631
O      -5.91117151     8.65847776    -8.03989260     0.23161999    -0.05740524     0.20974448
O      -5.83859435     0.20427608    -4.11530094    -0.39833019    -0.13391378     0.77298270
O      -9.79376038     8.13201167    -8.16269397     0.05853463     1.35116684     0.91116972
