# total energy = -630.69135901 eV

CRYSTAL
PRIMVEC
        0.00279571     0.02951795    -7.98606283
       -7.83802570     0.01298533    -3.99532603
       -3.92160916     8.71933433     0.00634407
PRIMCOORD
56 1
Li     -4.00497657     2.18701963    -1.91637291     0.15054397    -0.24065486     0.25168447
Li     -4.00794684     2.28394403    -5.87886313     0.39460677    -0.01874351    -0.94709261
Li     -7.88485311     2.20163409    -9.96174866     0.09393983     0.17657222    -0.01189469
Li     -7.80785177     2.50508505    -5.75724960    -0.23004190    -0.40967927    -0.97211253
Li     -3.79824393     6.70524333    -2.03579722    -0.16315509    -0.12298349     0.56616559
Li     -3.99918525     6.35987245    -5.87960412     0.08509389     0.21949324     0.18878719
Li     -7.83745382     6.49494930    -9.86440912    -0.00751821     0.27252533    -0.42499638
Li     -7.82924098     6.37890497    -5.98256730    -0.15256258    -0.06079555     0.32937518
Ti     -2.09179097     2.25969674    -3.98208418     1.66252577     0.80888394    -1.94504827
Ti     -5.83717985     6.70826078    -8.00808532     0.56917563     0.80320499     0.54145744
Ti     -7.62551249     4.36456388    -7.78520793    -0.79925146    -1.40240572     0.60979801
Ti     -7.85505388     4.41677082    -3.72424098     0.16476902    -0.04867293     0.00509603
Ti     -3.82326396     4.37405353    -7.80743140     0.48956389     0.31221464     1.29274837
Ti     -3.97296882     4.42085052    -3.62189323    -0.50487429     0.44819290    -1.46438709
Ti     -2.01246132     0.06466176    -2.20163648    -1.75913523    -0.73863205     0.35379710
Ni     -5.84026710     2.05052311    -7.91385572    -0.20379988     0.26048109     0.32173875
Ni     -5.90297345     2.29732531    -4.13240337     0.02243880     0.55225922     1.05146747
Ni     -9.69731810     6.29510127    -8.13536161    -1.12840273     0.14997721     0.72323065
Ni     -9.80699816     6.78665427    -3.94288015     1.08025221    -0.90884121     0.43999773
Ni     -1.98254015     2.18755369    -7.90857054    -0.10127409     0.21331705    -0.05822725
Ni     -6.08959751     6.71211490    -3.92957993     1.09869420    -0.13079094    -0.64771484
Ni     -5.93831820     8.69212168    -6.02899359    -0.23295538     1.42316476     0.74724814
Mo     -9.94859451     8.72521619   -10.29553824     0.74021456    -0.86513062     0.05729932
Mo     -9.80831381     8.70719157    -6.30004688     1.78083445     0.45607105    -1.17960870
O      -2.05365829     1.96691875    -2.13580179     1.08063679     0.06063788     0.99660623
O      -1.94586438     1.84284719    -5.98358975    -0.00367153    -0.37977433     0.03888606
O      -5.83657711     6.81536672    -1.99539660    -0.30401877    -0.18972450     0.24580129
O      -5.96315068     6.89476441    -5.90571345     0.09426200    -0.77704515    -0.58670934
O      -5.87539415     1.81397869    -9.79964629    -0.18528367     0.36399535     0.21354849
O      -5.85728354     1.94712008    -6.00648815    -1.45189254     0.69923720    -1.16049623
O      -9.70379417     6.82402601   -10.03937420    -0.58507524    -0.39030136    -1.27677362
O      -9.66237748     6.89843279    -5.76620432    -1.11894957    -0.30654724    -0.53713480
O      -3.91680922     2.39967373    -4.05598929    -0.79664397     0.28589957     0.78238469
O      -3.99518041     2.43478040    -7.89807954     0.30416902    -0.55557992    -0.18134010
O      -7.87541243     2.41243477    -3.94235635     0.40267924     0.17978864     0.26794574
O      -7.72179290     2.42335389    -8.06070158    -0.49760539     0.18829224     0.68260823
O      -3.85969084     6.29458711    -3.84915093     0.13344579    -0.29242599    -0.74620815
O      -3.83213804     6.44143388    -7.94709525    -1.01502388    -0.13048961    -0.43746496
O      -7.91219523     6.42060346    -4.05105674    -0.01263160    -0.68925500     0.87360069
O      -7.82946536     6.30014038    -7.92646691     0.76306149     0.53052553    -0.43187642
O      -3.76697357     4.14092609    -1.91802748    -0.52843412     0.46284882     0.04137444
O      -3.93281950     4.47557513    -6.03584902     0.11602946    -0.55711258    -0.28611150
O      -8.03056505     4.52909198    -9.94385905     0.93714062    -0.12806278    -0.18237229
O      -7.90353822     4.37482982    -5.98824254     0.27844445     0.27228233    -1.12482276
O      -3.89595683     0.01522674    -2.01635910     0.45389580    -0.19046195    -0.43935277
O      -4.10123545     0.27129493    -5.84547024    -0.13114197    -1.02093952    -1.10584605
O     -11.63868532     8.68050265    -5.98533339    -0.09930599     0.51905979    -0.42452495
O      -3.85280235     8.52493732    -6.09288960     0.43715586     0.72454774     0.29714885
O      -1.99067615     4.23240624    -4.17795616    -0.07576226     0.10527660     1.06913172
O      -1.90231741     4.13772494    -0.05109986    -0.74672700    -0.69163294     0.18708584
O      -5.88591537     4.20096231    -4.02555031    -0.07591112    -0.26026095     0.41103267
O      -5.80697413     4.66910502    -8.01511269     0.23644425     0.84691648    -0.30635206
O      -1.95214907     0.18352807    -4.08338907     0.29933066     0.61719457     0.60171147
O      -5.81555311     8.71434066    -7.94825772    -0.31276239    -1.20281633    -0.24675937
O      -5.89554597     0.44489168    -4.11359971    -0.32485906    -0.11853896     1.42661181
O      -9.66413231     8.13069976    -8.13588246    -0.46546298     0.73738230     1.51678353
