# total energy = -630.89880145 eV

CRYSTAL
PRIMVEC
        0.00285542     0.02004370    -7.95977623
       -7.82940539     0.00763210    -3.98158109
       -3.91729101     8.74642787     0.01461334
PRIMCOORD
56 1
Li     -3.92279220     2.27314006    -2.03528425    -0.26159350     0.02432678     0.56822022
Li     -4.10516067     2.27345580    -5.97135853     0.55396098    -0.05483960     0.01643355
Li     -7.74895977     2.24219642    -9.95603495    -0.31117942     0.29710677    -0.21939605
Li     -7.79345056     2.13898766    -5.97078457    -0.12589168     0.03693212     0.49929336
Li     -3.89365311     6.57070818    -2.09045491     0.12136936    -0.26581365     0.64496212
Li     -3.91227551     6.29366159    -5.76307025     0.17219809     0.35268359    -0.61138385
Li     -7.80650859     6.58648182    -9.92252770    -0.25450138    -0.21745004     0.06634288
Li     -7.89183977     6.54481112    -6.04534815     0.52604668     0.00797434     1.07142763
Ti     -1.90821330     2.12142019    -4.09443687    -0.71964707     0.77590708    -0.21799383
Ti     -5.76073870     6.65081677    -7.83638511     0.28057593    -1.32955853    -0.76977364
Ti     -7.85863240     4.32121037    -7.63171449     0.05298157     1.19660805    -0.91992955
Ti     -7.83153832     4.40763137    -3.72151241    -0.27701204     0.72231963     0.41066292
Ti     -3.76565630     4.32423659    -7.72819942     0.44222396     0.45563676    -1.88884201
Ti     -3.95319699     4.30001391    -3.75824193     0.35553167     1.03716452     1.64354105
Ti     -2.13202171     0.03640341    -1.98444448    -1.95358788    -1.70358598    -0.97465104
Ni     -5.88193987     2.47324665    -7.93330673     0.34379911    -1.19290562    -0.77306141
Ni     -5.90033585     2.19885569    -4.03991060    -0.78608984    -0.04698903     1.43027537
Ni     -9.77719159     6.57448583    -7.93362752     0.04960840    -0.08489770     1.48673725
Ni     -9.78101029     6.69260463    -4.00530412     0.32532342    -1.17075725     0.25830659
Ni     -1.92274274     2.06181772    -7.88855321    -0.39691755     0.44170650    -0.47029243
Ni     -5.83347077     6.52531069    -3.91773704    -0.37217783     0.97710554    -0.15279414
Ni     -5.97975294     8.75229187    -6.01922700     0.27853065     0.62461358     1.44103650
Mo     -9.94591907     8.75948527   -10.24474005     2.15964554     0.31944555    -0.04911209
Mo     -9.73754662     8.65014419    -6.31763873    -0.15195246     0.41693858    -1.74191686
O      -1.93854119     1.82368893    -1.95883543     0.24601799     2.19590100     0.65258801
O      -2.07317682     1.83996077    -6.02109453     0.32053645     0.42788593    -0.42115207
O      -5.80849949     6.90925461    -1.89525364     0.00188734    -1.21364131    -0.74700215
O      -5.83419988     6.95049665    -5.88765934    -0.30557251    -0.96039099    -0.32580965
O      -5.91106795     1.94019221   -10.09894898     0.75252734     0.61336916    -0.34751985
O      -5.92179556     2.01283103    -5.79286376     0.36549973    -0.55276118    -1.98754817
O      -9.81203601     6.94731235    -9.71295713    -0.12502309    -0.13215243    -0.50620134
O      -9.73053559     6.75338505    -5.93143460    -0.38594210     0.29378594    -1.35295138
O      -3.99872128     2.42494829    -3.98453752     0.42639206    -0.84796982    -0.18991335
O      -3.95566121     2.43851648    -7.99770557     0.54220513     0.30668997     0.49863239
O      -7.89344571     2.49389129    -3.94698242     0.32449215    -1.13705434     0.21374965
O      -7.85207275     2.36045606    -8.02382547     0.65068048     0.29960387     0.30692592
O      -3.79573655     6.30816340    -3.96129664    -0.61019767     0.13982283     0.33862798
O      -3.87404468     6.50400999    -7.96208197    -0.87787970    -0.68743285     0.53623470
O      -7.81231530     6.38497565    -4.01115428     0.23307109     0.23415241     0.09408744
O      -7.88738998     6.30668646    -7.91477391     0.76709318    -0.19382191     0.32160914
O      -3.80433262     4.35834832    -1.96240842    -0.56908391     0.16403153    -1.20511222
O      -3.87552570     4.42233810    -5.99819388    -0.23185855    -0.10986716     1.27482713
O      -8.00458060     4.47937337    -9.92326422     0.48095580    -0.49646230    -0.08670188
O      -7.97884450     4.18465490    -5.89553817     0.27749600     0.55311364    -0.80292217
O      -7.93548618     8.63131928    -2.18235051     1.46418873     0.70972458     0.73212960
O      -4.04882764     0.02351181    -6.00059852     0.56321654    -0.05939479    -0.06256668
O     -11.49600938     8.73219888    -6.07664584    -1.86592343     0.04968924    -0.16733662
O      -7.72298231     0.09254365   -10.10877269    -2.42596453    -0.01193155     0.71144985
O      -1.98488362     4.06198064    -3.99492615     0.23380733    -0.19713194    -0.08146173
O      -9.76768561     4.76773764    -3.98340611    -0.28493783     0.42775049    -0.02618466
O      -5.86765156     4.64323811    -3.99184523    -0.18545003    -0.45959107     0.02530410
O      -5.85974792     4.45148112    -7.99195983    -0.29830117    -0.03497505     0.50702206
O      -2.02387092     0.28070304    -4.01609229     0.43626570    -1.58144004     0.29677436
O      -5.87802883     8.48422317    -7.89445597    -0.34889627     0.94429185    -0.95160787
O      -9.91044023     8.61056202    -4.14649672     0.68745474    -0.11137234     1.12022105
O      -5.76940989     0.57662658    -8.12334174    -0.33916565     0.36597076     0.90740673
