# total energy = -631.03509070 eV

CRYSTAL
PRIMVEC
        0.00285542     0.02004370    -7.95977623
       -7.82940539     0.00763210    -3.98158109
       -3.91729101     8.74642787     0.01461334
PRIMCOORD
56 1
Li     -4.00480449     2.37487813    -1.88118119     0.48967785     0.06488404    -0.36047435
Li     -3.96653841     2.03215527    -5.89219208    -0.15768294    -0.08026752    -0.47193013
Li     -7.84371775     2.22156250   -10.00658015     0.03780944    -0.00004705     0.31644138
Li     -7.89588646     2.22646905    -6.05383077     0.34920999    -0.23094870     0.46527502
Li     -3.79057274     6.47803621    -2.06521485    -0.47570815     0.12257452     1.05490654
Li     -3.85812877     6.56402412    -5.82271912    -0.22253254     0.07666520    -0.01622796
Li     -7.92007510     6.41168483    -9.92736259     0.14291065    -0.11675737     0.19165966
Li     -7.69121313     6.40045438    -5.93312138    -0.45351243    -0.05789154     0.45293428
Ti     -2.13214513     2.19106237    -4.01543505     1.58602735     0.72018683     0.52689226
Ti     -5.83047866     6.71016849    -7.91112677     0.51456798    -0.42861655     0.01974888
Ti     -7.91178745     4.34152704    -7.77180058     0.63212813     0.17178939    -0.10366900
Ti     -7.93129564     4.32767345    -3.69714700     1.44881593     0.01618934    -0.45304696
Ti     -3.92174151     4.31600430    -7.60275578    -0.50325688     1.14902031    -0.23932979
Ti     -3.98145982     4.52504673    -3.76233519    -0.37625046    -0.59263866     0.52143002
Ti     -6.09067190     8.60448458    -2.04291933     1.43253889     1.60216982    -0.36254649
Ni     -5.88523080     2.35972304    -7.99063099     0.94026272     0.88130265     0.27844641
Ni     -5.94967032     2.34115976    -4.12569163     0.54257896    -0.62489481     0.77774595
Ni     -9.75661750     6.56090685    -7.87002808     0.29056481    -0.16635486     0.16541455
Ni     -9.83494333     6.28818842    -3.99223603    -0.02207198     0.66170085    -0.11342623
Ni     -1.95715735     2.27025702    -8.00147247     0.36469168    -0.48888463    -0.10996325
Ni     -5.93505373     6.53322813    -3.91437317     0.11975342    -0.07997496    -0.12628796
Ni     -5.79311963     8.71597427    -5.81330536    -0.50289009    -0.33480824    -0.98745962
Mo     -5.94593685     0.09315399   -10.22618497    -0.67157221     0.64059160    -0.94561494
Mo     -9.68837704     8.58453274    -6.33857436    -1.69690214     1.16895563     0.63292148
O      -1.99595168     1.93198920    -2.05915452     0.35472088    -0.38970627     0.31001414
O      -1.96043048     1.81866116    -5.97460397     0.11438188     0.16788661     0.21550525
O      -5.90963601     6.69111394    -1.93933795    -0.32710196     0.51376871    -0.60300134
O      -5.83395401     6.83081993    -5.80937754     0.16053916     0.75705027    -0.53466203
O      -5.83982001     2.08875729   -10.07294171    -0.48062460    -0.19386868     0.05543345
O      -5.94737787     1.96190697    -5.93250689     0.60608138     0.23022215    -1.31337818
O      -9.78157651     6.98737834    -9.89607017     0.31020264    -0.33216975     0.64129210
O      -9.72949066     6.70445540    -5.86087453     0.68816767     0.47927788    -1.39186742
O      -3.94169697     2.48508009    -3.98068142    -0.68679269    -0.38516867    -0.64262358
O      -3.81719501     2.43830139    -7.93900129    -1.13433534     0.23052594     0.56094151
O      -7.89907216     2.38246201    -4.07975654     0.23869621     0.59567842     0.48128944
O      -7.75949787     2.39541998    -7.95885731    -1.05731475     0.61857025    -0.34915994
O      -3.84711507     6.45343462    -3.87804956     0.08966361    -0.06369866    -0.47335007
O      -3.92910853     6.34863902    -8.07966774     0.08066510    -0.75228571     1.23542883
O      -7.97043599     6.29143870    -3.92313000     0.65928241     0.12932928    -0.02634842
O      -7.79075147     6.42121228    -7.93925131    -0.13908184    -0.00214217     0.18424188
O      -3.74347994     4.37114832    -2.00959187    -0.46368311     0.37205338    -0.59740730
O      -3.82600448     4.65971949    -5.85774077     0.09775755    -0.71922926    -0.98191732
O      -7.88829731     4.42079652    -9.89339089     0.28679811    -0.11457570    -0.24337839
O      -7.79007192     4.48165710    -6.03711354    -0.32350726    -0.28886672     0.41973726
O      -3.92101603     0.12098629    -2.08574955    -1.05547560    -0.75557863     0.47076472
O      -4.00750787     0.11189388    -5.91129330     0.04753884    -0.92188285    -0.46851710
O     -11.49383877     8.62074684    -6.05415064     0.70472532     0.16598554    -0.09658544
O      -7.73456442     0.07502601   -10.08464020     0.63050128    -0.04869087     0.29733566
O      -1.96697999     4.23382769    -4.15183071    -0.21731820    -1.05532937     0.68502079
O      -9.77799360     4.36839256    -4.07899473    -1.09389299    -0.32821789     0.24827140
O      -5.94542863     4.46901691    -3.97278279     0.41571827    -0.62185764    -0.16449243
O      -5.81839563     4.41437258    -7.88848875    -0.08645202    -0.86093794    -0.42922239
O      -1.85825411     0.21194080    -3.92656725    -0.29822885    -0.08733291    -0.00991619
O      -5.59167267     8.51549659    -7.99778156    -1.34456266    -0.04622447    -0.19458656
O      -5.78114778     0.27728268    -4.07736525    -0.46911727     0.18250617     1.22604305
O      -5.78981191     0.57503159    -8.13984117    -0.03022102    -1.06760792     0.35859198
