# total energy = -630.86685148 eV

CRYSTAL
PRIMVEC
        0.00285542     0.02004370    -7.95977623
       -7.82940539     0.00763210    -3.98158109
       -3.91729101     8.74642787     0.01461334
PRIMCOORD
56 1
Li     -3.93572660     2.29296928    -1.85642227     0.22181974    -0.21114296    -0.18495221
Li     -3.97929146     2.08031286    -5.98363184     0.06634879    -0.09181020     0.12538759
Li     -7.98050605     2.41008131    -9.86214799     0.69245323     0.25328619    -0.66039397
Li     -7.75524088     2.08371371    -6.04826755    -0.24225473     0.08378576     0.71231094
Li     -3.96432815     6.50335868    -1.92355276     0.27730585    -0.07628051     0.12863645
Li     -3.91836941     6.52243876    -5.77860708     0.45665923    -0.24493235    -0.34189943
Li     -7.97875117     6.37856674    -9.89507073     0.13903303     0.32163745     0.12116183
Li     -7.82976413     6.63778173    -5.87804468     0.19476508     0.06592417     0.14234130
Ti     -1.88860702     2.10856651    -3.99751129    -0.19430526    -0.27785552     0.87060295
Ti     -5.88190649     6.47739335    -7.89498875     2.10430839     1.19778152    -0.39138013
Ti     -7.83413562     4.48832775    -7.62093779    -1.60313374    -2.95685239     0.18100616
Ti     -7.80808976     4.42678162    -3.76599764     0.01294644    -1.15309424     1.09782938
Ti     -3.78204619     4.36284276    -7.64838843    -0.04624547     0.47434944     0.44390335
Ti     -3.93962254     4.29308837    -3.72243941     1.33885981     1.18206697    -0.01106859
Ti     -6.13707163     8.63552104    -1.95663501    -1.06275421     1.63213525    -1.22506647
Ni     -5.82085075     2.48840165    -8.03429258    -0.83094823    -1.79379736     0.49211063
Ni     -5.83975005     2.45571719    -4.01787455    -0.72351665    -1.16972314    -0.88214988
Ni     -9.82493815     6.60339441    -7.74766163    -0.71527272    -0.18375397    -1.69281159
Ni     -9.67803328     6.49802261    -4.01528556    -1.57108327     0.66430258     0.90414467
Ni     -1.90627269     2.10485343    -7.91678418     0.05615232     0.22391244    -1.04863806
Ni     -5.80232843     6.54611669    -4.00915573    -0.42784655     0.26423883     0.74483377
Ni     -5.97104202     8.70529457    -6.10239664     0.01330385     0.12572756     1.16634607
Mo     -6.12449266     0.12268490   -10.32826197     3.18943595    -0.97359083     1.72499100
Mo     -9.80681004     8.66366081    -6.33393223    -1.14663426     0.74863965     0.24170786
O      -1.88894338     1.94188370    -2.06718783    -0.57405551    -0.81512717     0.81222227
O      -2.03753136     1.85344564    -6.09506933     0.58204545    -0.94415307     0.36002753
O      -5.86936849     6.78217290    -1.88779196    -0.25438151    -1.24249441    -0.84409383
O      -5.84369873     6.82261017    -5.96842770    -0.63157651     0.42429886    -0.14080752
O      -5.88719430     1.99248815   -10.11702210     0.12012632     0.38427455     0.25434949
O      -5.89316274     1.91281688    -5.90460919     0.39521962     0.05505222     0.25012413
O      -9.81159001     7.00413701    -9.70488859    -0.39032679     0.35463090     0.08670108
O      -9.74535219     6.66817294    -5.88904698    -0.36994479     1.23796153    -1.10799800
O      -3.86096237     2.40776020    -4.06283250    -0.59929213    -0.55520808     0.45605980
O      -3.94823214     2.45335346    -7.85516129     0.84254415     0.12270562    -0.65575985
O      -7.77411493     2.42985640    -3.96717054    -0.43588143     0.27705590     0.11200089
O      -7.77197510     2.43633479    -7.93163371    -0.16998729     0.23680475    -0.62143062
O      -3.90185602     6.35023633    -3.87211418     0.80310270    -0.11937323     0.08231067
O      -3.86432370     6.44685223    -7.83854487    -1.03476687    -0.77997863    -0.63620529
O      -7.81709563     6.31505728    -4.01122751     0.73082266     0.82576894     0.42819762
O      -7.90058631     6.32922365    -7.89166820     0.60336723     0.80638529     0.18622200
O      -4.03022004     4.29454664    -1.96860849     0.58854885     0.13922758     0.39098695
O      -3.71612708     4.47249924    -5.90537529    -0.65202134     0.01058895    -0.04079890
O      -7.74674465     4.35761769    -9.90070562    -0.27785123     0.25838249    -1.15845190
O      -7.80129926     4.33033293    -5.86365338     0.17413112     0.11025902    -0.99740622
O      -7.95782697     8.73055360    -9.91112315     1.05521377     0.48685311    -0.37023492
O      -7.98140550     8.70878569    -6.07689907     0.29991347    -0.37259337     0.07990638
O     -11.64910992     8.68043396    -6.06827038     1.39521496    -0.20918755     0.25285415
O      -7.81595246     0.02856499   -10.18106096    -2.00718915     0.23239420     0.33147410
O      -1.92363951     4.08619264    -4.00143715     0.55965128     0.05305537     0.29372737
O      -9.80602515     4.66344722    -4.00035733     1.92002855    -0.26544894    -0.29608681
O      -5.78037574     4.53805782    -4.02333245    -1.83181992     0.17129268    -0.48585437
O      -5.81015487     4.43356157    -7.93613493    -0.71879586     0.67316931     0.31405121
O      -1.93794902     0.08078230    -3.98175558     0.01449120     0.54758931    -0.36440524
O      -5.98010048     8.43064766    -8.03746714     0.33725824    -0.16881247     1.10727862
O      -9.65874232     8.55706101    -4.05623499    -0.39564386    -0.90779397    -0.60233111
O      -5.84706831     0.58860516    -8.09221557    -0.39430118     0.16445525    -0.26677727
