# total energy = -630.38979010 eV

CRYSTAL
PRIMVEC
        0.00279571     0.02951795    -7.98606283
       -7.83802570     0.01298533    -3.99532603
       -3.92160916     8.71933433     0.00634407
PRIMCOORD
56 1
Li     -3.85977034     2.05975772    -1.91513660    -0.55223132     0.42663351    -0.28115215
Li     -4.06381754     2.02321068    -6.00677948     0.21840502     0.20476100    -0.23103430
Li     -7.92483462     2.33014493    -9.96711243     1.03209715     0.45064634    -0.29950667
Li     -7.94621701     2.02609933    -5.84745006     0.93433722     0.18312144    -0.10179074
Li     -3.81516844     6.41243951    -2.00423452    -0.08449710     0.01922787     0.14507422
Li     -3.79250138     6.29799021    -5.88245130    -0.55499158     0.41429894    -0.21656518
Li     -7.81404328     6.39321712    -9.90423129    -0.26841962    -0.10589235    -0.00662086
Li     -7.81521200     6.58128022    -5.68610103     0.47589010     0.24292025    -1.05519657
Ti     -2.02890917     2.16838754    -4.16653840     0.76962993     0.36503836     0.03216712
Ti     -5.79712752     6.63556598    -8.00283346    -0.48591071    -1.00374391     0.90244588
Ti     -7.95615694     4.46306603    -7.60406980     0.99744484     0.61372276    -0.39087679
Ti     -7.94475244     4.38996449    -3.82454841     1.11436549    -0.58572017     1.05789779
Ti     -3.81051559     4.34250431    -7.77331888    -1.17367632    -0.60206953     0.34165601
Ti     -3.96949265     4.39615599    -3.81945937    -0.85650131    -0.37151626     0.96503477
Ti     -2.17200907     0.03149596    -2.06211013    -0.61345222    -0.42650028    -0.15646421
Ni     -5.90219820     2.41093705    -8.09103198    -0.32020915     0.93388784     0.17010113
Ni     -5.81642054     2.05902167    -3.97583084    -1.32221540     0.64347714    -0.19961184
Ni     -9.84725351     6.63154538    -7.85825172     0.16023816     0.14231985    -0.25723618
Ni     -9.68496679     6.53204174    -4.02054512    -1.19518819     0.74834370    -0.01534253
Ni     -1.90458072     2.05650405    -7.90002505    -0.10938333     0.34152884    -1.95229450
Ni     -5.85970568     6.53749276    -3.87862944    -0.16846511    -0.49162520    -1.24861978
Ni     -5.99917254     8.66164583    -6.01028332     1.13410692     0.45446695    -0.22443347
Mo     -9.96232575     8.66947187   -10.25414051     2.45414065     0.85831824    -1.10691208
Mo     -5.90700819     0.03589896    -6.40412024     0.24360831    -0.11014651     0.73170649
O      -1.93169378     1.91794374    -1.86170018    -0.14516626    -0.22112243    -0.13305263
O      -1.91769758     1.80625487    -6.14394902    -1.11712713     0.31980574     2.35764767
O      -5.86496469     6.78828809    -2.03883532     0.08949864     0.41866211     0.97534454
O      -5.69173367     6.85242637    -6.01438977    -1.38452116     0.19427589     0.23831457
O      -5.91677581     1.98329989   -10.10780096     0.67800229    -0.41116453    -0.02798363
O      -5.97643675     1.96738750    -5.87015722     0.96472861    -0.56488085    -0.07217165
O      -9.82493827     6.83916901    -9.75064525     0.12575198     0.69480899     0.24898782
O      -9.66902172     6.86487926    -5.98833553    -1.28873341    -0.98625037    -0.64774701
O      -3.90777792     2.29298229    -3.98192221     0.21349634     0.41651073    -0.45846544
O      -4.01307290     2.44303599    -8.10322605     0.78445972     0.17139149     1.18723012
O      -7.75848850     2.47556266    -3.94403591    -0.55150409    -1.07907812    -0.47984518
O      -7.81941747     2.55356619    -8.01804734    -0.38896843    -0.41662072     0.37735027
O      -4.01228524     6.33927788    -4.00217359     1.80454415     0.57847459     0.63279636
O      -3.85916624     6.26783345    -8.04887049    -0.65183648     1.69125967     0.07600667
O      -7.81396008     6.35909530    -3.87774706     0.51984160     0.68596445     0.07503422
O      -7.91285265     6.50277713    -7.94526864     0.71817086    -1.56472784     0.06981421
O      -3.77167541     4.43196903    -2.04836122    -0.15568764    -0.17742134    -0.49022509
O      -3.66603573     4.51179394    -6.00262802    -0.04274832    -1.24352148     0.11964243
O      -7.72613582     4.42213234   -10.03453064    -0.40159206     0.20135618     0.36391172
O      -7.64066732     4.62287997    -5.87702911    -0.96107582    -0.49795470    -0.65537390
O      -4.01070132     0.02697397    -2.05010299     1.17690174     0.10045727     0.12114977
O      -8.02725028     8.68328339    -5.97124009     0.69273008     0.86087412    -0.59494324
O     -11.60479781     8.69355695    -6.03317141    -0.45943595    -0.15124965    -0.04800484
O      -7.71954550     0.10830160   -10.15983103    -2.26497732    -0.27317677     0.28548304
O      -1.97427374     4.12340829    -4.00953442     0.37048194    -0.53039028     0.13081780
O      -9.79233394     4.66961028    -4.07864382     0.79568833    -0.05276508    -0.11651848
O      -5.83806584     4.58864269    -4.00139260    -0.18231973    -0.18767494    -0.05318773
O      -5.84256388     4.45613919    -7.76634557    -0.10413478    -0.01275663    -1.22509922
O      -1.91253928     0.27150018    -4.00605806    -0.07106259    -0.43032578     0.23602217
O      -5.96372322     8.48211305    -7.97882635     0.39141880    -0.05098043    -0.59966140
O      -9.66154793     8.47522668    -4.11678064    -0.78972150    -0.19969406     1.82934778
O      -5.88223269     0.57093330    -8.16583821    -0.27953005    -0.04290647    -0.36611483
