# total energy = -630.07236133 eV

CRYSTAL
PRIMVEC
        0.00285542     0.02004370    -7.95977623
       -7.82940539     0.00763210    -3.98158109
       -3.91729101     8.74642787     0.01461334
PRIMCOORD
56 1
Li     -3.88213584     2.40892542    -2.00542225    -0.43381314    -0.20496389     0.61465492
Li     -3.89360754     2.08202456    -6.06277087     0.16677095     0.25725116     0.11308622
Li     -7.94051592     2.38676111   -10.04385489     0.02393853     0.01404308     0.43086602
Li     -7.76135127     1.96688601    -6.00848493     0.13190975     0.03360568     0.37786957
Li     -3.91803830     6.56049408    -1.92118018    -0.07996924    -0.12193562     0.13853895
Li     -3.87054965     6.33247132    -6.03037737     0.06959070     0.33426301     1.07067130
Li     -7.91191893     6.58505006    -9.99329460     0.20724415    -0.63884447     0.34525770
Li     -7.71399077     6.49790918    -5.85688288    -0.88935635    -0.30419127    -0.80317104
Ti     -2.03434863     2.25491319    -3.91965215    -0.11498643    -1.94368617    -1.27371130
Ti     -5.93880384     6.65813548    -7.95245481    -0.29176795    -2.41177865    -0.48385114
Ti     -7.84599852     4.23203301    -7.68047943     1.41979191     2.02017504     0.60658206
Ti     -7.79885550     4.32170472    -3.81157640    -1.06407683     0.69497888     1.47007471
Ti     -3.82936591     4.38476460    -7.65188390     0.58582056    -0.02220510     0.44976192
Ti     -3.93487494     4.44606459    -3.72873709    -0.64394922    -0.46421065     0.38667230
Ti     -6.09738489     8.71938022    -2.02980232     1.13322668    -1.35373995    -1.08009158
Ni     -5.84009624     2.43003062    -7.93418590    -0.14432732    -0.31551752    -0.83642246
Ni     -5.91455697     2.40353422    -4.03845272     0.92208937    -0.69199424    -0.84408534
Ni     -9.88419319     6.56801932    -7.83184623     1.61136230     0.04100075    -1.06661426
Ni     -9.64709099     6.53873502    -3.94524516    -0.91476618     1.43468032    -0.71059630
Ni     -1.86952974     2.00143356    -8.04015862    -0.75448203     0.38339984     1.14875495
Ni     -5.90893044     6.49533065    -4.00969747     0.34541311     0.01017925     0.63514905
Ni     -5.85218465     8.61941028    -5.91429593    -0.57665204     1.69063423    -0.07198402
Mo     -6.01074796     0.19279783   -10.16221201     0.63867272    -0.66309747    -2.55337483
Mo     -9.76585905     8.69482625    -6.32554434    -0.18522898    -0.86004413     0.21212296
O      -1.89300654     1.86437069    -1.94596189     0.26487267     1.24814123    -0.52370087
O      -2.00787480     1.79629668    -6.07672181     0.74458379    -0.47376527     0.41671874
O      -5.92959170     6.68967672    -2.00937395    -0.04690182     0.73418012    -0.14710392
O      -5.90043155     6.74967980    -5.86926420     0.74654321     0.88240333    -0.28664828
O      -5.93879269     2.19134411   -10.19199673     0.09577063    -1.68835717     1.15518044
O      -5.74308109     1.97912504    -5.93648434    -1.61935884    -0.30520787     0.30628927
O      -9.71613671     6.97750251    -9.77387177    -0.83082628     0.85627445     0.34224269
O      -9.74715611     6.72319819    -6.00512485    -0.06804640     1.02353657     0.60667127
O      -3.91407194     2.43107919    -3.90617592     0.32417666    -0.35296805    -0.48824155
O      -3.98253287     2.52555958    -8.09067101     1.09087294    -0.69788811     0.90740363
O      -7.81366759     2.41631993    -4.02915855    -0.49091179    -0.74765816    -0.37725997
O      -7.75587260     2.31551078    -8.00208367    -1.23909122     0.84919957     0.49884703
O      -3.91696980     6.29815320    -3.97956554     0.04564877     1.47765897     0.01803687
O      -4.00500758     6.33599703    -7.87906844     0.14440770    -0.14899621    -0.32777101
O      -7.78517967     6.30116373    -4.09052403     0.17357272     0.52563376     1.46966199
O      -7.89671849     6.26569712    -7.90886275     0.48634632     0.52142552    -0.02513887
O      -3.94605199     4.33453760    -1.96320800     0.21710300     0.52071927    -0.57191292
O      -3.82746121     4.29370055    -5.84476905    -0.02328327     0.09845667    -1.54691076
O      -7.99696955     4.39286092    -9.96299003     0.60914178    -0.10612510    -0.73169333
O      -7.80025101     4.46294687    -5.91399913    -0.57597188    -0.71116981    -1.24900236
O      -3.92398564     0.13166202    -2.03684451    -2.03081775    -0.12748972     0.63817359
O      -4.04076231     0.14611354    -6.11426487     0.10899901    -1.55319851    -0.35365530
O     -11.63211827     8.64729324    -6.06782955     1.39904413     0.59112289     0.10176791
O      -7.75413388     0.03599235   -10.20655155    -0.01665628     0.11568734     0.63682218
O      -1.93448881     4.16630965    -3.87090188    -0.56443791    -0.76677551    -0.32606305
O      -9.76213905     4.73517560    -3.89619068    -0.60222627    -0.59096428    -0.69128095
O      -5.89628841     4.40093499    -4.11213487     0.70549671     0.08894291     0.45298855
O      -5.88781497     4.34482412    -7.95826831     0.21372269    -0.05461896     0.17101811
O      -2.06421990     0.21594940    -3.91126746     0.70994947     0.29836680    -1.03469573
O      -5.77208514     8.39662637    -8.04456704    -0.47763353     1.82548206     0.54372985
O      -9.56470947     8.48178312    -4.10583331    -0.93247749     0.01283753     2.28140183
O      -5.91010664     0.59426752    -8.14822622     0.30776536    -0.27195831    -0.20199965
