# total energy = -630.79799915 eV

CRYSTAL
PRIMVEC
        0.00279571     0.02951795    -7.98606283
       -7.83802570     0.01298533    -3.99532603
       -3.92160916     8.71933433     0.00634407
PRIMCOORD
56 1
Li     -3.85729511     2.30797411    -1.87404703    -0.23967918    -0.14340170    -0.61764109
Li     -4.00202966     2.25454747    -5.97891254    -0.02808325    -0.01179984    -0.34960961
Li     -7.72182885     2.12042032    -9.89462934    -0.32871605     0.03058551    -0.40450415
Li     -7.74551355     2.45201627    -5.82611625    -0.07685653    -0.28174835    -0.50541538
Li     -4.04537631     6.33932535    -1.86828810    -0.19889494    -0.16878087    -0.38241657
Li     -3.73821116     6.61016555    -5.94722928    -0.55880759     0.01950932    -0.13083369
Li     -7.75356208     6.60695530    -9.80500354    -0.64351537    -0.28853310    -0.30042511
Li     -7.88647259     6.46211402    -5.86885366     0.10135961    -0.04515437    -0.12324178
Ti     -2.14098522     2.33107416    -4.08589969     1.56760703     0.19496601    -0.47872381
Ti     -5.91203189     6.83443710    -7.83901520    -0.59561703     1.37644268     0.40247964
Ti     -7.77862615     4.29239517    -7.75545601    -0.21852291     0.64680058    -1.52457965
Ti     -7.87937726     4.44689681    -3.70616930     0.59584144    -0.61256929     1.05435058
Ti     -3.91780102     4.34280571    -7.74378143     0.00843895    -0.28561309     0.29083916
Ti     -4.03994535     4.52213196    -3.84833382    -0.50899380    -1.49788985     0.21626870
Ti     -1.84061774     0.04271635    -2.22666174    -1.48660874     0.50361032    -0.39752797
Ni     -5.81508589     2.23933261    -7.97533959     0.08259461    -0.36417224    -1.02718164
Ni     -5.88793622     2.27476746    -4.00514693     0.06401935    -0.65756179    -0.73580139
Ni     -9.89009770     6.47636183    -7.86947313     0.98344730    -0.12327953    -0.12153303
Ni     -9.86813087     6.29124197    -4.09621318     0.85769678     0.33977744     0.80401674
Ni     -1.90364183     2.22090554    -8.10752268    -0.46272297     0.26514590     1.32786946
Ni     -5.89988836     6.62472717    -3.96138874    -0.18236497     0.00128109    -0.14051565
Ni     -2.06265092     0.04074162    -5.92226947     0.23198944     0.83999862    -0.22045642
Mo     -9.70769734     8.74266151   -10.26442747    -0.39068492     0.92029631    -1.20641231
Mo     -9.86771129     8.56609423    -6.33520824     2.12132330     0.18294877     0.04238003
O      -1.94267237     1.98670773    -2.08708146     0.71926715    -0.75833314     0.70542120
O      -2.13785915     1.97069606    -5.99716613     1.13604556    -1.34131184    -0.39363095
O      -5.95349806     6.83259153    -1.77657888     1.14495347     0.33259145    -1.61678295
O      -5.82630235     6.87494198    -5.87320895    -0.25231770     0.12874873    -0.05319167
O      -5.74428161     1.94843018   -10.02399229    -0.47212324     1.33057675     0.71234489
O      -5.86130025     1.88535406    -6.06324989    -0.41349417     0.95105932     0.28731343
O      -9.66096261     6.94420421    -9.92599348    -0.19149019    -1.29224591     0.66730560
O     -10.05580843     6.66035526    -5.95364539     1.12987012     0.06781273    -0.56456983
O      -3.92795823     2.41325824    -4.05207712    -1.85624039    -0.17979530     0.18061220
O      -3.89081779     2.44955686    -8.03270062     0.24639572    -0.57705069     0.58951546
O      -7.81504987     2.42548836    -3.94107007    -0.30326742     0.21714125     0.02908390
O      -7.82081627     2.41816585    -7.98947321    -0.10593346    -0.36869828     0.04430942
O      -3.94659428     6.38496106    -4.08794525    -0.01860440     0.72766220     1.11099381
O      -3.97004952     6.26902638    -8.02485511    -0.57210406     0.71453386     0.83288465
O      -7.83627704     6.39241450    -3.96889021    -0.34691463    -0.39907995    -0.15484919
O      -7.81133679     6.38756570    -7.83429088     0.21145455    -0.28552680    -0.25279584
O      -3.84128313     4.24988510    -2.11451014    -0.15658426     0.93942453     0.25538898
O      -3.81265620     4.38894991    -5.98259017    -0.51762387    -0.03157078    -0.12273093
O      -7.89100679     4.51613606    -9.92161921     0.05861155     0.19600704    -0.23548819
O      -7.91801531     4.43979184    -6.03341598     0.07912973    -0.00340896     1.08562720
O      -3.83245896     0.11777622    -2.03634142    -0.45553891    -0.70382076    -0.12579481
O      -8.13184239     8.54542750    -5.99725590     0.55388578    -0.31173437     0.53285017
O     -11.63454322     8.72513487    -5.91865830    -2.67957545     0.02854160    -0.27420329
O      -7.58051341     0.07798426    -9.89699498     0.78010344    -0.29127914    -0.48675205
O      -2.05569902     4.19362799    -4.12228828     1.32843211     0.36690049     0.31753786
O      -1.94776857     4.31884854    -0.02938540    -0.27096540    -0.36012804    -0.50031007
O      -5.94902424     4.15756034    -3.98902351     0.43238953     0.19301436    -0.35163585
O      -5.84530216     4.11404401    -8.05381334    -0.22373611     0.79049680     0.41203311
O      -2.02950949     0.26514829    -4.07026092     0.62814784    -0.42686183     0.75129877
O      -5.97918757     8.71030089    -7.79318631     0.51909708    -1.23699628    -0.15465729
O      -5.89674885     0.32343912    -4.12698444     0.16958141    -0.07962757     1.51285034
O      -5.67962519     0.36987105    -8.09114351    -0.79124576     0.70288737    -0.14687825
