# total energy = -630.34150059 eV

CRYSTAL
PRIMVEC
        0.00285542     0.02004370    -7.95977623
       -7.82940539     0.00763210    -3.98158109
       -3.91729101     8.74642787     0.01461334
PRIMCOORD
56 1
Li     -3.87609484     2.08621353    -1.91958829    -0.33024822    -0.03211439     0.04597282
Li     -3.96445832     2.34675726    -5.97820594    -0.06208842    -0.26562402     0.26533899
Li     -7.78227452     2.11782815    -9.97430747    -0.26464225     0.34536521     0.37759022
Li     -7.91343089     2.38577214    -6.01421295     0.52112639    -0.48593567     0.48296990
Li     -3.89456505     6.41338127    -1.92484188    -0.52375764     0.06126683    -0.17545905
Li     -3.82606661     6.28179154    -5.75107569     0.03976566     0.81789621    -0.66132638
Li     -7.89518602     6.41205129    -9.80678767     0.07460074     0.31078837    -0.34216324
Li     -7.76354744     6.34289933    -5.85193491    -0.16011382     0.57873310     0.16396117
Ti     -2.05683360     2.10179634    -4.02720936     1.21231614     0.25272081     0.66579164
Ti     -5.74884478     6.55185811    -7.86150640     0.15588293     0.79520282    -0.18161110
Ti     -7.91341245     4.48925033    -7.66396784     0.23854403    -2.28797967     0.40346206
Ti     -7.83743298     4.42772755    -3.76745858    -0.05746662    -0.20057187    -0.23998899
Ti     -3.84954788     4.29617836    -7.75255543     0.84755803     0.65854584     1.27453146
Ti     -3.95996513     4.42553574    -3.70388360     0.29362530    -0.39996962    -0.62282997
Ti     -5.95938903     8.64309764    -2.05126634    -0.88359108     1.27815743    -0.01123993
Ni     -5.84339567     2.48468323    -7.98809361    -1.19272126    -1.35321232     0.33934629
Ni     -5.89304648     2.30704307    -4.02893550     0.09723813    -0.11524361     0.10663188
Ni     -9.79164582     6.56850254    -7.83919577     0.27403316     0.41556282     0.68375903
Ni     -9.81800823     6.49199040    -4.04002941     0.46289420    -0.47677223     0.50886675
Ni     -1.83092319     2.13939771    -7.95597012    -0.98290029     0.14503985    -0.11329938
Ni     -5.91638477     6.53043286    -3.95144994     0.29396020     0.53833657    -0.09995854
Ni     -5.90381902     8.70375053    -6.09816470    -0.06511295     0.90222386     1.32441192
Mo     -5.96386859     0.04211100   -10.24762775    -0.70242593    -0.77561419     1.92792409
Mo     -9.83199209     8.71401939    -6.32071111     1.02755133     0.15521369    -0.96248308
O      -2.02978362     2.02898166    -2.10344026     0.86098478    -0.97698461     0.65211078
O      -2.03270219     1.79655377    -6.06913754     0.44702795     0.06131072     0.19569894
O      -5.91681882     6.76504277    -2.00134226     0.48659139    -0.38195299     0.37764683
O      -5.78108716     6.92032461    -5.99604743    -0.35877083    -1.37079579     0.59065303
O      -5.83628370     1.93555085   -10.08270427     0.01162133     0.65423280    -0.15144448
O      -5.85132190     2.04946321    -5.85800462    -0.03133785    -0.83458122    -0.46362181
O      -9.74007434     6.92118587    -9.66610708     0.11113130     0.70744972    -0.39823984
O      -9.94638740     6.73915907    -5.95197578     0.98361551     0.82600871    -0.48851172
O      -3.97568491     2.30175362    -3.91447211     0.72381267     1.11908868    -0.76415696
O      -3.90446236     2.42301859    -7.90446142     0.12772773     0.18465548    -0.45760165
O      -7.81144815     2.45956869    -3.92743686     0.11266622    -0.60159926    -0.13347633
O      -7.78074034     2.47627055    -7.88227635    -0.35728380     0.18804862    -1.39997684
O      -3.79326563     6.37460953    -3.93328296    -0.74356046    -0.41597384     0.49353121
O      -3.82830498     6.43553318    -7.87109543    -1.58005558    -0.80509354    -0.39803158
O      -7.97244156     6.35474250    -4.01683939     0.94595422     0.30441279     0.10054374
O      -7.79330841     6.37038225    -7.73296494    -0.18266934     0.76169878    -0.97083112
O      -3.98111656     4.48340690    -1.95992935     0.34429815    -0.16190188     0.72458814
O      -3.87592207     4.49184572    -5.93498216    -0.27108643    -0.99632080    -1.20984983
O      -7.86416267     4.51606453   -10.00250486     0.31126400    -0.42015644     1.87220771
O      -7.73928338     4.23942952    -5.90087815    -0.26721614     1.27282296    -0.80875044
O      -3.88398721     0.01546072    -2.12211401    -0.53942247     0.02041412     0.57319081
O      -8.05933907     8.63328748    -5.83719159    -0.05120358     0.38174705    -0.92139580
O      -7.68840104     0.14429365    -6.17101562    -1.01061152    -0.63350636     1.35017536
O      -7.75357851     0.03812464   -10.03009200     0.85545601     0.27647193    -0.13421210
O      -1.89126410     4.18007425    -3.99939684    -2.09719108    -0.80907856    -0.17795151
O      -9.77026599     4.45586024    -3.95802014    -1.11018858     0.48740344    -0.70262422
O      -5.85693031     4.52298880    -3.96625749     0.11767552     0.28159374    -0.32941308
O      -5.91653193     4.47752004    -8.00883230     1.25532877     0.12688468     0.11377371
O      -1.84841801     0.08900352    -3.93864217    -0.24884174     0.67589956    -1.01972364
O      -5.77077268     8.51546055    -7.98450929    -0.31919782    -0.69658075    -0.75234900
O      -9.81964386     8.50887027    -3.99394193    -0.05056803    -0.53549236    -1.41555760
O      -5.98585418     0.57936693    -8.10809405     1.30832973     0.45969540     0.89011469
