# total energy = -630.65427338 eV

CRYSTAL
PRIMVEC
        0.00285542     0.02004370    -7.95977623
       -7.82940539     0.00763210    -3.98158109
       -3.91729101     8.74642787     0.01461334
PRIMCOORD
56 1
Li     -3.99460038     2.28915338    -2.00312517     0.24406808    -0.29177601     0.26410987
Li     -3.83512109     2.13202428    -5.97900235    -0.37845323     0.27184526    -0.45246320
Li     -7.83246886     2.44247463    -9.90758643     0.20016691    -0.05264428     0.29696892
Li     -7.87675799     2.24950547    -5.76471851     0.91190139     0.16109585    -0.49679857
Li     -3.81147712     6.74621706    -1.86174797    -0.33251243    -0.24844578    -0.77239982
Li     -3.84064221     6.33413560    -5.88217183    -0.46280522     0.06962208    -0.22179512
Li     -7.92013801     6.42169852    -9.99034567     0.02163540     0.21344707     0.30878898
Li     -7.84274547     6.37220033    -5.83181608     0.28843148     0.17780673    -0.54795751
Ti     -2.02026461     2.09964615    -4.02259117    -0.06833180    -0.07149341    -0.04857888
Ti     -5.84705876     6.64243382    -8.06987447    -0.98520204    -0.87056421     1.06702162
Ti     -8.03913796     4.35940051    -7.67879719     1.28633756     1.48189104     0.44410873
Ti     -7.84761723     4.35610681    -3.74762546    -0.10126366     0.55144821    -0.62631387
Ti     -3.83148756     4.31058287    -7.84829460    -0.52547376    -0.57707984     0.55926759
Ti     -3.98898343     4.41283396    -3.79199861     0.05875905     0.50269521     0.38249409
Ti     -2.20103631     0.06409240    -1.98136512    -0.98865220    -0.56335024    -0.52771902
Ni     -5.80676815     2.39564670    -7.97179097    -0.15903078     1.80525526    -0.56786746
Ni     -5.83396454     2.30335250    -4.06146617     0.68808407    -1.74791367     0.22303545
Ni     -9.80773473     6.63573781    -7.91516133     0.38607815    -0.15363986    -0.18377831
Ni     -9.81109591     6.45206245    -3.96420868     0.77939548     2.16754584    -0.04677241
Ni     -1.87884143     2.05110577    -7.91393298    -0.01665206    -0.01756092     0.08031753
Ni     -5.93752637     6.61064856    -3.99653612     0.63824633     0.36463419    -0.12095524
Ni     -5.87494398     8.73914766    -5.86379832    -0.33349125    -0.58227972    -0.52666537
Mo     -6.03132319     0.05160360   -10.07151606     0.32639626    -0.24890101    -0.36764239
Mo     -9.71025405     8.72565718    -6.28952721     0.25069044     0.59438181    -1.36777911
O      -1.85721887     1.92817941    -1.98721161    -0.42073801     0.16713901     0.61688222
O      -1.94606852     1.87042107    -5.90625926     0.80441897    -0.19531360    -1.31619638
O      -5.91151433     6.85290002    -1.95953819     0.36160244    -0.93423560    -1.25152738
O      -5.89436203     6.87207992    -5.86912847     0.14700530     0.36136210    -0.11196114
O      -5.84766650     2.01925468   -10.03544299    -0.26171443     0.58910991     0.27417698
O      -5.79471984     2.00931581    -6.00502816    -0.57385835    -0.44400070     0.44076175
O      -9.83013711     6.91471865    -9.82257260     0.46291616    -0.71172647    -0.24425816
O      -9.75154107     6.79956739    -6.07003332     0.45891431     0.06130887     0.94674469
O      -3.88110965     2.30028543    -4.04591638    -0.34704291     0.56256214     0.46690056
O      -3.78963459     2.33320575    -8.01479680    -0.12056439     0.67739273     0.09698881
O      -7.67283696     2.41054491    -3.80102007    -1.87534627    -0.15363292    -1.38715357
O      -7.85670310     2.53614027    -7.94320011     0.07120725    -1.53842230    -0.13356183
O      -3.86317658     6.37718513    -3.96161776    -0.68023230    -0.78817897     0.30431915
O      -3.94491835     6.31884588    -7.99275355     0.11273981     0.30076032     0.29143532
O      -7.82838244     6.46400113    -4.00781641    -0.25693982    -1.13727263     0.99922320
O      -7.86910441     6.35398355    -8.00870223     0.26088995    -0.18032635     0.46971625
O      -3.94871609     4.14277133    -2.04106480     0.22683819     0.66253464    -0.30647427
O      -3.71764215     4.17592778    -6.08235766    -0.38253803     0.68119407    -0.11033840
O      -7.92206836     4.39191745    -9.93498503     0.37851058     0.54388585    -0.50446853
O      -7.68901219     4.39933259    -5.91742340    -0.87677428    -0.03779154    -0.79071404
O      -7.95067963     8.72915700    -9.84604282     0.71032362     0.25255357    -0.36772763
O      -3.91434222     0.06058858    -6.11113260    -1.35495878    -0.52127106     0.09145774
O     -11.54925450     8.63728732    -6.09980751     0.88509726     0.84816969     0.26583198
O      -3.88561166     8.63912941    -5.90720406    -0.23703934     0.79225320    -0.15787645
O      -2.07380905     4.21824158    -4.09832386     1.03637654    -0.46828433     0.74958685
O      -9.72505190     4.74651793    -4.20887580    -0.14974225    -2.26094671     0.20206147
O      -5.83514294     4.11389747    -4.15659736    -0.54075631     1.30402721     0.46179099
O      -5.87581771     4.38363105    -8.01334511     0.52640729     0.19169518     0.13736254
O      -2.09877249     0.15243476    -3.93885576     0.55721796     0.84541364     0.77121796
O      -5.84682060     8.51654349    -8.06540168     0.41954907    -0.20769860     1.10192200
O      -5.80384214     0.26338150    -3.92760657    -0.54662689     0.02052030    -0.50657663
O      -5.78805774     0.65268973    -8.15112170    -0.59532136    -1.55408184     1.74495085
