# total energy = -630.29505666 eV

CRYSTAL
PRIMVEC
        0.00279571     0.02951795    -7.98606283
       -7.83802570     0.01298533    -3.99532603
       -3.92160916     8.71933433     0.00634407
PRIMCOORD
56 1
Li     -3.92764211     2.18676150    -2.08778118    -0.39675610     0.08137393     1.16453920
Li     -3.83405643     2.28358598    -5.97329967    -0.23191760     0.14840513     0.01615907
Li     -7.88889143     2.36056426    -9.78034441     0.74885286     0.34461889    -1.42932340
Li     -7.71003070     2.09482270    -5.93849112    -0.56740738     0.38177930     0.41543138
Li     -3.85629490     6.67703690    -2.11821806    -0.00639901    -0.10710849     0.43956586
Li     -3.96195704     6.39187569    -5.99905632    -0.01427240    -0.16531930     0.75966198
Li     -7.81621853     6.61423311   -10.16552968    -0.50567667    -0.68460843     0.92543232
Li     -7.82241138     6.74399959    -5.87341266    -0.18111381    -0.23394535    -0.54735873
Ti     -1.86266482     2.16092328    -4.02388911    -0.75367368     0.71592932     0.34803684
Ti     -5.84779207     6.71496188    -7.95471615     0.54001951    -0.01496282    -0.15993332
Ti     -7.64117534     4.45959189    -7.71592390    -0.59220669    -0.53420230    -0.83368712
Ti     -7.92261729     4.42571706    -3.79838705     0.85332541    -1.15930459     1.03169560
Ti     -3.84406821     4.38673465    -7.73903201     0.94368953    -0.16880931     1.16120143
Ti     -4.03855051     4.27438069    -3.65294274    -0.22939013     1.26938651    -0.59819734
Ti     -6.23913648     8.68217887    -2.04111080     0.13218998     0.61643250    -0.29897888
Ni     -5.86057314     2.15113250    -7.92943695     2.23370794    -0.23747883     0.30468334
Ni     -5.91089579     2.29110802    -4.02560899     0.30298949    -0.23513657     0.47386876
Ni     -9.82726712     6.23037678    -8.03380836     0.05019444     1.03338667    -0.64418919
Ni     -9.73952307     6.74875099    -4.06103103    -0.37405214    -0.57488302     0.16295841
Ni     -1.96987834     2.14324675    -7.98726145     0.99494896     0.61337551     0.02588772
Ni     -5.94184453     6.78406203    -3.98051730     1.02209947    -0.61070302    -0.68518756
Ni     -2.03144956     0.07560376    -6.01953086     0.65137226     1.39410658    -0.12215092
Mo    -10.02292383     8.62725330   -10.21730932    -0.69080812     0.78039626     1.25728338
Mo     -5.80796985     0.10824170    -6.37134186     2.12919037    -0.11597513    -2.43453720
O      -1.88130109     1.88702604    -1.96558019    -0.36669746    -0.35833499    -0.85312544
O      -1.93132629     2.02627613    -6.00564812    -0.05673688    -1.33650687     0.76197256
O      -5.83270244     6.75206666    -1.92535970    -0.21450671     0.92962635    -1.28654492
O      -5.96721004     6.99208547    -5.98231564     0.45115003    -0.57925059     0.16627793
O      -5.86767323     1.83168882    -9.71808067    -0.50206075    -0.67936022    -0.63350121
O      -5.79283864     2.01243444    -6.04247881     0.07405228     0.32812541     0.31270692
O      -9.85479316     6.74022563   -10.16433670     0.39836491    -0.30534397     0.16010734
O      -9.71577490     6.93555512    -5.94803165     0.05771242    -1.24006100     1.00529531
O      -3.87810306     2.30150603    -3.94108707     0.25263568     0.81977746    -0.34057662
O      -3.89177161     2.43997073    -8.04352761    -0.88153206    -0.44401138     0.62695580
O      -7.81854832     2.44993169    -3.83673120     0.15942864    -0.82900791    -1.22094671
O      -7.65739435     2.40097805    -7.93152410    -2.18825908     0.26950520     0.11831797
O      -3.91718847     6.33432381    -4.02737105    -0.28923803    -1.18411073     0.69089255
O      -3.85772514     6.40133699    -7.92058064    -0.19146995     0.37610028    -0.91948805
O      -7.78805041     6.34609752    -4.06905446    -0.47684512     0.99664984     0.60076659
O      -7.80413080     6.33851283    -8.06305809    -0.19279944     0.16155546     0.34427505
O      -4.14961254     4.23909573    -1.88896178     0.57285108     0.48822314    -0.99713086
O      -3.73126234     4.42835782    -5.94088837    -0.89206806    -0.52515968    -1.54178022
O      -8.03982268     4.37111850   -10.01177179     0.97050794     0.59416576     0.40074552
O      -7.77700200     4.40815786    -6.00604213    -0.72195717    -0.17949767     0.50069795
O      -8.04406405     8.59749057   -10.02562603     2.15981427     0.14876885     0.23055481
O      -3.90601434     0.11389432    -6.18119646    -0.15218758    -0.00052024     0.45117460
O      -7.48206802     0.07778601    -6.01213016    -2.40933288     0.07752425     0.46068396
O      -3.95387102     8.66618030    -6.12599495    -0.55656342     0.22368496     0.32028574
O      -2.03705114     4.23132612    -4.04679004     0.87439435    -0.04837880     1.01182140
O      -1.93311593     4.12560648    -0.04213465    -0.81940733    -0.35867785    -0.90035566
O      -5.90876287     4.14720311    -4.11132562     0.10866862    -0.01327239     0.28217557
O      -5.76992240     4.75379406    -7.80096529    -0.67233369     0.20749354    -0.44778959
O      -1.93844573     0.22460513    -3.96032583     0.23958922     0.53818185     0.47861237
O      -5.77871749     8.72472671    -8.18861423    -0.33366000    -0.52035612     0.88256318
O      -5.76218440     0.41361908    -3.88504826    -0.36708235     0.41037946    -2.30031821
O      -9.82119763     8.15621589    -8.15353733     0.00330213    -0.27729082     0.87507242
