# total energy = -630.88009178 eV

CRYSTAL
PRIMVEC
        0.00279571     0.02951795    -7.98606283
       -7.83802570     0.01298533    -3.99532603
       -3.92160916     8.71933433     0.00634407
PRIMCOORD
56 1
Li     -4.02098799     2.27442533    -1.82042116     0.01367088     0.14398872    -0.51636896
Li     -3.84090362     2.43628723    -6.00663535    -0.48366663    -0.85321593     0.14885649
Li     -7.87302261     2.34724265   -10.02248588     0.55488696     0.08321155    -0.06445569
Li     -7.96616617     2.29670766    -5.85487791     0.50678727    -0.04250101    -0.63175808
Li     -3.96748422     6.35723966    -2.07731032     0.33761914     0.45825016     0.78195548
Li     -4.02628911     6.45539762    -5.76372446     0.34764603     0.01380231    -0.96305192
Li     -7.79351249     6.37114924    -9.92040921    -0.48946983    -0.00075576    -0.30336305
Li     -7.80989225     6.68654485    -5.87738967    -0.89502474     0.06574104     0.15224196
Ti     -1.85344402     2.20709378    -4.02619973    -0.54824114     0.05597949     0.33741892
Ti     -5.80692745     6.69630472    -7.98890883     1.25686297     0.18995042     0.54943927
Ti     -7.70275219     4.58684802    -7.75103430     0.11866457    -1.32608705     0.43699775
Ti     -7.80288933     4.33906505    -3.81609458     0.57729465     0.27575130     0.47727059
Ti     -3.75337822     4.32940973    -7.68442529    -1.00236303     0.51317393    -1.21916307
Ti     -3.91609010     4.35545390    -3.72185433    -0.36638389     0.23103801    -1.16715319
Ti     -2.29323341     0.02297433    -2.10959507     1.83775498     0.13869353     0.56948205
Ni     -6.03516690     2.26770486    -7.99186232     1.38738157    -0.15855928     1.09579327
Ni     -5.81527665     2.27956260    -4.04893999    -0.27080863     0.22981836    -0.48551402
Ni     -9.80534224     6.31583703    -7.81997542    -0.17863814     0.82634331    -1.06868593
Ni     -9.75264835     6.58264945    -3.93536265    -0.67877574     0.12332924    -0.76093916
Ni     -1.88173301     2.11545607    -7.96640143    -0.10136396    -0.83239202    -0.17757536
Ni     -5.85162922     6.50384655    -4.03889534    -0.89002154     0.13928405     0.18964617
Ni     -1.96461093     0.09211068    -6.02575703    -0.83149857    -0.79038847     0.21375517
Mo     -9.96175594     8.71196709   -10.29363809    -1.55258336    -0.82842447     1.48076086
Mo     -5.92659441     0.09937237    -6.38275361     1.25821383     0.17414141    -0.56323908
O      -2.00212806     1.91771635    -1.96650058    -0.02189003     0.22939515    -0.07937829
O      -1.82266533     1.93325379    -6.01270728    -1.06911498    -0.13830231    -0.04800287
O      -5.84226210     6.82535596    -1.89333254    -0.50776795     0.09375587    -1.14903484
O      -6.04376709     6.87969296    -5.97704411     1.71277833     1.05893266     0.17899894
O      -6.01479119     1.87506763    -9.81423974     0.63637577    -0.34785036    -0.24081886
O      -5.92989896     1.99900910    -6.03670861     0.01443834     0.22893716    -0.16481871
O      -9.84129335     6.76841148   -10.06920627     0.28870532     0.33998365     0.00748251
O      -9.74515506     6.87813507    -5.83329042    -0.33855128    -0.68152913     0.29264922
O      -3.79721485     2.48253631    -4.01052329    -0.45027863    -1.41687975    -0.13586680
O      -4.21204660     2.43415880    -8.00005287     1.09611976     0.60596650     0.70407544
O      -7.71955271     2.28834133    -4.07028907     0.09850103     1.10118390     0.83255717
O      -7.84313444     2.39157505    -7.96520799    -0.34082816     1.03324948     0.26741353
O      -3.92660231     6.28435221    -3.97879619    -0.19733178     0.22478536     0.50757591
O      -3.88080737     6.38805371    -7.92466999     0.02553180    -0.27411824     0.01907700
O      -7.89592285     6.31293081    -3.90854952     0.97381372    -0.23081282    -0.06720748
O      -7.83268579     6.50513473    -7.95600170     0.53025260    -1.25500767    -0.22976191
O      -4.10362141     4.38200996    -2.01435492     0.45573562    -0.02222880     1.75692582
O      -3.94882594     4.37194736    -5.94963599     0.07917300     0.15288810     0.03538735
O      -7.88245875     4.33663596   -10.00901284     0.06568924     0.16199407     0.27316384
O      -7.94968843     4.49925762    -5.99529309     0.36791061    -0.39630401    -0.67116271
O      -4.05216156     0.01794474    -2.06774538    -0.75788829    -0.03985437     0.17173061
O      -4.06384478     0.10796855    -6.15015420     0.95001520     0.13172699     0.33761676
O     -11.56781528     8.70427671    -6.11232894    -1.29752378     0.25770095     0.55901455
O      -3.91100265     8.70598596    -6.07114368     0.66088762    -0.33157340    -0.16827833
O      -1.96864490     4.36155318    -3.93664837     0.97148397     0.03179300    -0.16706966
O      -1.92377651     3.99547942    -7.95944656     0.15382298    -0.27155481    -0.39248144
O      -5.86838233     4.24741522    -4.07322947    -0.73184194    -0.28544334    -0.11842812
O      -5.77149290     4.63679981    -8.04457114    -1.99904721     1.29850007     0.61602684
O      -1.82423739     0.30792390    -3.94901244    -0.67888609    -0.17813292    -0.40608136
O      -1.79843261     0.04798661    -8.08642986    -0.61676008    -0.59744420    -0.11148933
O      -5.80817876     0.22843185    -4.04399329    -0.12543088     0.80647221    -0.76257428
O      -9.89685114     8.16072388    -8.10023854     0.39921010     0.19243638    -0.16506602
