# total energy = -629.93822204 eV

CRYSTAL
PRIMVEC
        0.00279571     0.02951795    -7.98606283
       -7.83802570     0.01298533    -3.99532603
       -3.92160916     8.71933433     0.00634407
PRIMCOORD
56 1
Li     -3.80012742     2.25659155    -1.83146639    -0.83879662    -0.16048423    -0.21496733
Li     -3.95580567     2.35514382    -5.87162175    -0.06808332    -0.36913413    -0.23836602
Li     -7.77662637     2.34701353    -9.94843334    -0.26520114    -0.09022186    -0.02867944
Li     -7.80342515     2.23502902    -5.92698223    -0.23513011     0.11275519    -0.04288261
Li     -3.73371346     6.54360061    -1.91292063    -0.53284248     0.04979482    -0.29288203
Li     -4.06393280     6.57433802    -5.90937861     0.75817436    -0.51471620     0.36218344
Li     -7.79138308     6.52573712    -9.91119727    -0.03766664    -0.17571386    -0.13926538
Li     -7.83611886     6.48040949    -6.01223224     0.02326133     0.36817092     0.91020750
Ti     -2.01393074     2.39170040    -3.96005293     1.21845114     0.55817657    -0.00829238
Ti     -5.75978665     6.86021627    -7.91452060    -0.03825732     0.43116270     0.12043068
Ti     -7.67607721     4.58235088    -7.75306753    -0.15957860    -2.49909836     0.32254234
Ti     -7.94811276     4.34351652    -3.71561285     1.78595938     0.41583108     0.72181947
Ti     -3.92099215     4.32176940    -7.79361195    -0.39797554     0.99212340     0.57968978
Ti     -4.04158568     4.41584941    -3.70709675    -1.33619037    -0.15487543     1.97081609
Ti     -6.02773036     8.64847289    -2.33325353     0.30806810     1.55271635     0.96040043
Ni     -5.88217101     2.09631791    -8.00310672    -0.54233622     0.26121513     1.05731319
Ni     -5.93360731     2.26170254    -3.99076393     0.24808922    -0.16828180     0.21579942
Ni     -9.72157370     6.37157565    -8.05582716    -1.40294214    -0.17769414     0.43913088
Ni     -9.72077206     6.35654539    -3.99768511    -0.46133100     1.45658220    -0.10756412
Ni     -2.03926046     2.24945403    -7.95252021     0.60937256    -1.29495956    -0.06631475
Ni     -5.97632926     6.74353042    -3.85599763     0.65294979    -1.37970050    -2.10630452
Ni     -1.92869508     0.12966573    -5.85016017    -0.69799364    -0.37964550    -3.17424589
Mo     -9.90725565     8.54234741   -10.33959217    -0.09455415     1.46888799    -0.10899560
Mo     -5.84991219     0.08046053    -6.44058979    -0.33659134    -0.36618524     0.10110604
O      -1.89774340     1.87744377    -2.02516578    -0.39724702     0.29372930    -0.23165359
O      -1.98155495     1.94980384    -5.90184331    -0.21003921     0.31615388    -0.44268383
O      -5.83771381     6.79064630    -2.04225215     0.27642744    -0.24967276     1.16607166
O      -5.86489382     6.96185631    -5.93233434    -0.49212338     0.44457277     0.50098132
O      -5.94943474     1.76511966    -9.76545939     1.00822467    -0.46901221    -1.10936275
O      -5.86537049     1.98270621    -6.06729294    -0.49903726     0.02722858    -0.28954537
O      -9.74622192     6.64353749   -10.08979946    -0.53070772     0.07191225    -0.19352301
O      -9.73422358     6.86149123    -5.88696820    -0.45456344    -0.06355029     0.20089736
O      -3.91330484     2.34585233    -3.79968804     0.18880572     0.84292627    -1.08251952
O      -4.02883698     2.35746555    -7.88875841     0.46644003    -0.09847204    -0.31260304
O      -7.94740450     2.38364007    -3.87558014     0.64694899    -0.07820078    -0.58342022
O      -7.84280343     2.64899352    -8.14705139     0.28956773    -0.97540605     1.60519405
O      -3.92327972     6.26381803    -3.96186422    -0.16930947     0.43878289     0.10670005
O      -3.82095330     6.40049207    -7.97859374    -0.08275783     0.09604574     0.32338390
O      -7.83181560     6.35972082    -3.88257647     0.17701365    -0.91366366    -0.76029409
O      -7.81499514     6.44489269    -7.95323131     0.04212521     0.86385610    -0.23968549
O      -4.10570615     4.17836483    -1.83194099     0.37500873     0.63233496    -1.98465382
O      -3.86453705     4.25794852    -5.99841276    -0.15878644     0.13119964     0.07768991
O      -7.85628820     4.42624408    -9.90865902    -0.25852270     0.35877964    -0.99667804
O      -7.86366011     4.34061377    -6.01335296     0.16015575     0.42272430     0.23281364
O      -7.86060289     8.54444763    -2.21840215    -0.49058809     0.44877099     0.28370472
O      -4.08781980     0.02939679    -5.96358020    -0.31356325     0.26711248    -0.53236077
O      -7.78292633     0.09718047    -6.35525793     2.07538011    -0.62536296     0.89993405
O     -11.65069318     8.66218768    -9.87123880     0.77983766    -0.59382724    -1.30020831
O      -2.04037717     4.44406723    -3.83847746     0.15592526    -0.72954480    -0.59000587
O      -1.95336527     4.14530745    -0.11255860    -1.06797812     0.12807067     0.20568427
O      -5.93848329     4.04210546    -3.97667158     0.12802404     1.18326634    -0.22726644
O      -5.84428600     4.92746420    -7.82328374     0.82819378    -0.66034814    -0.29262426
O      -1.82741907     0.42324416    -4.13010265    -0.38391755     0.00093663     1.93112026
O      -1.97334432     0.04114649    -8.01151126     0.28177472    -0.64763668     0.56571414
O      -5.83500100     0.47966911    -4.07536740    -1.02913198    -1.57852582     0.67130243
O      -9.70374902     8.16322486    -8.23695454     0.32591492     0.77611921     1.19207140
