# total energy = -630.66129427 eV

CRYSTAL
PRIMVEC
        0.00279571     0.02951795    -7.98606283
       -7.83802570     0.01298533    -3.99532603
       -3.92160916     8.71933433     0.00634407
PRIMCOORD
56 1
Li     -4.00140373     2.48198326    -1.90550598     0.27190271    -0.32816296     0.12241128
Li     -3.99625635     2.04037911    -6.11787551     0.26641252    -0.03105342     0.29708085
Li     -7.92637551     2.30623618    -9.98645696     0.87718628    -0.05289961     0.07302258
Li     -7.69458100     2.24481783    -6.00144137    -0.65111755    -0.20132492     0.47706717
Li     -3.86620533     6.57407178    -1.87431064     0.24488075    -0.07850778    -0.07310350
Li     -3.93940893     6.71337090    -5.98512468    -0.15381645    -0.33808958     0.71905666
Li     -7.92702411     6.50072173    -9.95017457     0.42307967    -0.02378911     0.29665200
Li     -7.91394575     6.43859962    -5.91188191     0.54776348     0.15811839     0.32813376
Ti     -2.07360164     2.21784286    -4.12268931     0.11551411     0.04333591     0.36463049
Ti     -5.80152653     6.63617349    -7.94704001    -0.80224461    -0.52033538    -0.02192537
Ti     -7.94599184     4.41770004    -7.70075940    -0.04081775     0.60790735     0.53141043
Ti     -7.85387247     4.35614908    -3.70124587    -0.95728182     0.24308820    -1.41011002
Ti     -3.90191172     4.40223940    -7.64386762     0.56825101    -0.03929516     0.36803984
Ti     -4.09178055     4.50692306    -3.74657978     0.90686422    -0.29447620     0.28271817
Ti     -6.05382199     8.70417106    -2.16937950    -0.05816907    -0.88218030     0.53603245
Ni     -5.93067166     2.54367962    -7.99056964     0.21375783    -1.28867856    -0.20215183
Ni     -5.92415564     2.21968226    -4.09910752     0.74642084    -0.92892117    -0.30669492
Ni     -9.80882730     6.49040623    -7.92046336    -0.44667523     0.32111655     0.31253520
Ni     -9.74697192     6.49253047    -3.82709858    -0.34494408     0.62629097    -1.46403769
Ni     -1.85052024     2.08435046    -7.95470248    -0.80596838    -0.00628806    -1.17998333
Ni     -5.81419076     6.47400391    -3.93829681    -0.72250844     0.79644947    -0.34199514
Ni     -1.95592547     0.06397877    -6.04378170    -0.36568892    -1.84030727     0.05810783
Mo     -5.96717920     0.05891698   -10.21127745    -0.36739201    -0.07195249    -1.75385968
Mo     -9.71187204     8.60048403    -6.48785352    -0.79619596    -1.20281285     1.09016079
O      -1.90725101     1.79050862    -1.90341611    -0.02472717     1.28595119    -0.19383545
O      -1.92142149     1.87411151    -6.10100779    -0.32997492     0.59151656     1.00914561
O      -5.82252999     6.73340016    -1.92869330    -0.29626861     0.32716038    -1.04487053
O      -5.92134116     6.94304070    -5.96293334     0.27293512    -0.37070233     0.51358976
O      -5.89706347     2.02681862   -10.16924598     0.12187983    -0.38729608     0.27817576
O      -5.84882900     1.82004121    -6.07410834     0.12402243     1.78044182     1.25096283
O      -9.87326546     6.78784575    -9.77920048     0.71498923     1.57804332    -0.23264548
O      -9.76454287     6.67840413    -6.00425771     0.24839963     0.51389761    -0.33586177
O      -3.95522837     2.31453008    -4.09864481     0.10196315     0.65204539     0.49752296
O      -3.87263640     2.48247594    -7.94562328    -0.32685679     0.44360916    -0.34317142
O      -7.78675178     2.28118185    -3.99739654    -0.59215019     1.23990525     0.07136976
O      -7.94078813     2.47356494    -7.85407933     0.61003798    -0.13362158    -1.49115699
O      -3.87044023     6.42120901    -3.96651486    -0.45461114    -0.78729802     0.20217754
O      -3.91199858     6.44252560    -7.85747770     0.42970445    -0.50255026    -0.35823759
O      -7.75202827     6.37428718    -3.92862342    -0.28855946    -1.06777297     0.33835029
O      -7.94351069     6.38943702    -7.97325493     0.69800439    -0.75365958     0.06259244
O      -3.94953659     4.50944080    -1.95021499     0.00237200    -0.60340384    -1.16233282
O      -3.87487115     4.49502075    -5.89282076    -0.21710782    -0.17758499    -0.23578356
O      -7.69573596     4.34555427    -9.96537894    -0.41892453    -0.19718672     1.22236124
O      -8.00126884     4.33328429    -5.94397604     0.55813224     0.25966617    -0.48337028
O      -3.96563635     0.04586085    -2.03920240    -1.19904967    -0.52687982    -0.04123067
O      -7.89947145     8.65837778    -6.20540731     0.34777641     0.39613873     0.21871380
O     -11.43677639     8.62651044    -6.04652358    -1.35811773    -0.13169096    -0.00704506
O      -7.78082562     0.08146925   -10.17370579     0.76207828    -0.23147991     0.41446299
O      -2.02985517     4.13388257    -4.07782262    -0.19158258    -0.33065048     0.20390249
O      -9.80462407     4.56085014   -11.91438964     0.58245304     0.71374217     0.16745781
O      -5.94152393     4.21461239    -4.06025996     0.55477506    -0.00905478    -0.30759736
O      -5.88150238     4.62362483    -7.85855809    -0.38578531    -1.45365141    -0.11168027
O      -1.91433188     0.16114315    -4.01938016    -0.05942168     0.92527614    -0.35906477
O      -5.82766226     8.43528169    -8.05712852    -0.13275423     1.72544886     0.03662462
O      -9.78985535     8.52418578    -4.11017341     0.59902277    -0.06776570     2.26712264
O      -6.03752454     0.58707205    -8.17345691     0.77152465     0.63910627    -1.41272384
