# total energy = -630.81804246 eV

CRYSTAL
PRIMVEC
        0.00279571     0.02951795    -7.98606283
       -7.83802570     0.01298533    -3.99532603
       -3.92160916     8.71933433     0.00634407
PRIMCOORD
56 1
Li     -3.94395032     2.34048155    -1.83417366     0.22621189    -0.47414749    -0.19544197
Li     -3.91840500     2.47439102    -5.93740226    -0.26071220    -0.43058107    -0.11687452
Li     -7.77350695     2.28540197    -9.92780103     0.08758894     0.11091172     0.05789851
Li     -7.92818978     2.31067064    -5.81175896     0.51139883    -0.06888295    -0.14565484
Li     -3.97179275     6.36050250    -1.94802151     0.10959568     0.33779094    -0.18966421
Li     -3.82766106     6.25060839    -5.95048743    -0.24682655     0.34413406     0.28479044
Li     -7.86367148     6.28695075    -9.97555657     0.05679861     1.15689633     0.23154554
Li     -8.06905400     6.42962435    -5.96826539     0.33932305     0.15697551    -0.03468059
Ti     -1.99568326     2.05027614    -4.04971844    -0.49846660    -1.02104080     0.78664491
Ti     -5.84601199     6.55071445    -7.90938602    -1.39542559     0.21130038    -0.79659391
Ti     -7.82739990     4.34832778    -7.74042179    -0.07995046     0.70655212    -0.75699181
Ti     -7.86323133     4.37837068    -3.70886605    -0.10370731     0.02717674    -0.14221322
Ti     -3.86630755     4.35414994    -7.79564979     1.06786074    -0.27238048    -0.51708677
Ti     -3.90023477     4.37080639    -3.66212499    -0.79542854    -1.39231194    -0.35268270
Ti     -1.89469879     0.05777656    -1.89092784     0.13329013     0.04435011    -0.37973080
Ni     -5.90034138     2.13376145    -7.91929302     0.52453380     0.13915501     0.44902487
Ni     -5.87676510     2.38497023    -3.99858820     0.75509120    -0.82227435    -0.26573671
Ni     -9.84711519     6.35804284    -8.06922721     0.37956013     1.50493194     0.28854471
Ni     -9.91072452     6.78001899    -4.00393714     1.29712024    -0.60039537    -0.30292276
Ni     -1.98209923     2.04574207    -7.93155578    -0.16873573     0.68403743    -0.43661798
Ni     -5.98685746     6.63410127    -4.07651777     0.91962049    -0.22407902     0.21618398
Ni     -1.84204660     0.02239886    -6.07683250    -0.42052389     0.36565942     1.67243077
Mo     -5.90464678     0.07691550   -10.36305517     2.97788467    -1.16385776     0.95199940
Mo     -5.84419779     0.08764107    -6.36552597    -0.99761418     0.35585972     0.20478808
O      -1.94508237     1.97563015    -1.97207611    -0.57696840    -0.10818535    -0.19401502
O      -1.89907078     1.95212382    -5.96531949    -0.37665523    -1.03623781    -0.37202756
O      -5.84937080     6.89551588    -1.99211181    -0.24577885    -0.91128214     0.08634193
O      -5.83258794     6.89020166    -6.01233012     0.19176195     0.51214927     0.28484646
O      -5.76417145     1.95074973    -9.77943588    -1.51355624    -0.09763069    -0.49422909
O      -5.86733083     2.02791985    -6.02934075    -0.53627289    -0.15740697    -0.37964631
O      -9.77781779     6.71702793   -10.01978766    -0.63058012     1.19483829    -1.56478925
O      -9.94488695     6.82624143    -5.99773576     0.11134502     0.06446364     1.02939406
O      -3.99208786     2.41148491    -3.95233506     1.60217387    -0.01564720    -0.42382711
O      -4.04085981     2.42191043    -7.90763324    -0.30041651    -0.71786370     0.13795214
O      -7.67157235     2.45983613    -3.84073368    -0.98219482    -0.11587736    -0.79485824
O      -7.92938771     2.41291346    -7.92626397     0.72328657    -0.18826020    -0.22878080
O      -4.04770548     6.15193525    -3.96537202     0.17924073     2.52431986    -0.55722259
O      -3.91394466     6.42081311    -7.98629029    -0.07480212    -0.40724656     0.26319632
O      -7.80653973     6.43260612    -4.10352139    -1.16923957    -1.10436988     0.95586236
O      -7.81065741     6.43450437    -7.99345599    -0.47187652    -1.00249965     0.35151194
O      -3.97893175     4.24371829    -1.90636240    -0.22350927     0.69606875     0.23545660
O      -3.99905066     4.33503591    -6.04989515     0.30392019     0.40216107     0.40287891
O      -7.88519298     4.41874177    -9.89533331     0.11521109     0.07250153    -1.17716426
O      -7.86621488     4.40411402    -6.01620042    -0.20982163     0.11023207     0.87889714
O      -4.01905538     0.04652096    -9.95581870    -0.87807556    -0.08475053    -0.57595022
O      -8.05682617     8.69892235    -6.03146986     0.92489899     0.08509795    -0.22335897
O      -7.75953782     0.13673293    -5.95616442    -0.53126637     0.07397604    -0.10611344
O      -7.67649610     0.09859828   -10.19376618    -0.69612436    -0.13382231     0.68984713
O      -2.00148713     4.36398358    -4.04343865     0.19431459     0.15214876     0.15871752
O      -1.95517331     3.88009617    -0.10887496     0.20656012     0.45031392     0.76765215
O      -5.89881430     4.29500926    -4.09656409    -0.37813239    -0.23440843     0.61099161
O      -5.91279759     4.68386507    -7.96983187     0.59760245     0.00951947    -0.16995043
O      -1.98709461     0.17350489    -3.90926429     0.21825626     1.00130042    -0.94786870
O      -2.01949028     0.03598985    -7.96449328     0.22881531    -0.01488282    -0.35125697
O      -5.83344343     0.40069985    -4.17054144    -0.04233120    -0.02046310     1.23245389
O      -9.89778751     8.28732554    -8.09891217    -0.21903412    -0.94704809    -0.25897690
