# total energy = -630.91606937 eV

CRYSTAL
PRIMVEC
        0.00285542     0.02004370    -7.95977623
       -7.82940539     0.00763210    -3.98158109
       -3.91729101     8.74642787     0.01461334
PRIMCOORD
56 1
Li     -3.92740818     2.49622246    -1.98590752    -0.13266683    -0.48653046     0.40765318
Li     -3.87636782     2.14569257    -6.09478847    -0.65101273    -0.08858957     0.32445590
Li     -7.81008745     2.13672112    -9.95796489     0.04299343    -0.08235996    -0.19008511
Li     -7.91224980     2.25448297    -5.77822970     0.39540152     0.30875151    -0.79564793
Li     -4.03913671     6.49103370    -1.87824697     0.86099324    -0.13607993    -0.09422746
Li     -3.92168488     6.64488557    -5.94938005     0.12970404     0.31127987     0.72836303
Li     -7.87068211     6.45452763    -9.98837208     0.19544131     0.41583819     0.74167668
Li     -7.79451858     6.61684479    -5.80942026    -0.38263551    -0.44954838    -0.29566070
Ti     -2.08276374     2.26407335    -4.11189672     0.97623673    -1.89289040     1.35644592
Ti     -5.88833759     6.51427427    -7.86321155    -0.75111949     0.98474901    -0.46021965
Ti     -7.91963317     4.38578939    -7.76235228     0.76692810    -0.04797882     1.68127090
Ti     -7.79151240     4.44237236    -3.68153001     0.79541725    -0.87995063    -1.84021407
Ti     -3.77372865     4.39252781    -7.61171235    -0.80485956    -0.25733094    -0.00645780
Ti     -4.00856028     4.44027682    -3.81419504    -0.87393786    -0.18255216    -0.34583740
Ti     -5.79835878     8.74439487    -2.05502608     0.98750768    -0.66468913     0.79231226
Ni     -5.93669396     2.32037568    -8.06277392     0.53248375    -0.40206882     0.77684048
Ni     -5.85099673     2.18266573    -4.14017238    -1.06787037     1.17335182     1.02858195
Ni     -9.88300371     6.72277452    -7.78899181     0.66754292    -0.52073486    -0.66687748
Ni     -9.73346440     6.50468101    -3.89564297    -0.04486984     0.11469589     0.14059615
Ni     -2.01768863     2.27343282    -7.96666723     1.37006402    -0.37996009    -0.15175289
Ni     -5.78676812     6.66415971    -3.97935657    -0.80340946    -0.29150288     0.59732242
Ni     -5.88038979     8.69425465    -5.91521382     0.33746619    -0.67954517    -0.88182336
Mo     -9.77234403     8.75486200   -10.25717136    -0.89907633     0.03621925     0.44235314
Mo     -9.73057837     8.69663527    -6.29760379    -0.75025993    -0.68210806     0.78187135
O      -1.94557423     1.95828869    -2.00526891    -0.64617561    -0.87541066     0.29870986
O      -1.91818450     1.79011080    -5.94769256    -0.56845103     0.22171107    -0.93759786
O      -5.86911391     6.69296794    -2.01641429    -0.14716502     1.07947773     0.34801251
O      -5.90663735     6.78367842    -5.89282309     0.52013354     1.01659152     0.02377423
O      -5.87011443     1.97406221    -9.97155748     0.40019770     0.09317493    -0.78523350
O      -5.98684581     1.90349119    -6.02761200     0.80047473     0.60691077    -0.38468831
O      -9.78815410     6.89599306    -9.80170508    -0.75310298    -0.94017524     0.15222116
O      -9.85245078     6.77179970    -5.83966703     0.31467136     0.58900014    -0.55946397
O      -3.94584631     2.35127642    -3.99249419     0.14581524    -0.54088368    -0.43399885
O      -3.87401941     2.42204981    -7.93808717    -0.64379379     0.81488240    -0.37713896
O      -7.87261919     2.47557356    -3.94641973    -0.42408775    -0.38548356     0.21254593
O      -7.80153237     2.43400137    -7.97528547    -0.78992132     0.04904787    -0.48217683
O      -3.92621420     6.31677142    -3.99689574     0.45541088     1.24102416     0.15540782
O      -3.90428586     6.37960326    -7.76856152    -0.24784788    -0.49855867    -1.03551867
O      -7.69582742     6.39800994    -3.94695601    -0.92331089    -0.11360506     0.06094645
O      -7.94520498     6.33034482    -7.76725120     0.41739274     0.45682137    -1.00291147
O      -3.99207170     4.34389742    -2.08110912     0.16983973     0.22891326     1.53860125
O      -4.05087242     4.23191872    -5.87106728     0.85404952     0.03290371    -1.41190008
O      -7.83174647     4.46005403    -9.91783107    -0.13203773     0.06373967     1.40216942
O      -7.85425217     4.34162307    -6.00566230    -0.37108672    -0.00828045    -0.30617730
O      -8.00984371     8.54433911    -9.86577101     0.37425961     1.21994609    -0.77433761
O      -7.93097090     8.70201777    -6.22782273    -0.20222324     0.10588057     0.96889658
O     -11.66259774     8.65070153    -6.01671967    -1.28913258     0.02435593     0.40029493
O     -11.68670385     8.75007333   -10.03771865     1.06473322    -0.27279792    -0.10059548
O      -2.05551478     4.06695045    -4.04178341     0.62520364     1.14632625    -0.21422149
O      -9.72456734     4.52642008    -3.97539068    -0.90800348    -0.19520792     0.13390666
O      -5.90648029     4.12267160    -4.08481859     0.07537983    -0.33994898     0.16389385
O      -5.86750568     4.48555420    -7.92615555     0.12567031     0.17707381    -0.35940592
O      -1.92533212     0.13568569    -3.91713534    -0.55010754     0.42568961    -0.46818678
O      -6.06577162     8.44544567    -7.96874057     0.97659241    -0.80842045    -0.28819074
O      -5.82717457     0.30415216    -4.16472543     0.19220208    -0.15054100     0.68093638
O      -6.04470525     0.45491808    -8.06373220     0.37277307     0.38688362    -0.60456061
