# total energy = -630.03699068 eV

CRYSTAL
PRIMVEC
        0.00279571     0.02951795    -7.98606283
       -7.83802570     0.01298533    -3.99532603
       -3.92160916     8.71933433     0.00634407
PRIMCOORD
56 1
Li     -3.86324153     2.07175438    -1.85496060    -0.18930871     0.51182505    -0.33394141
Li     -3.83303483     1.84980955    -6.00118935    -0.71709400     0.49512268     0.04511539
Li     -7.73199105     2.67153269   -10.09023472    -0.00408397    -0.30828291     0.93069488
Li     -7.80554330     2.40742740    -5.76557296     0.03264009     0.05373240    -0.50255612
Li     -4.02327577     6.34147032    -2.04228625     0.22180637     0.30778467     0.48668824
Li     -3.79174759     6.63381655    -5.82050659    -0.28935904    -0.81204044    -0.48935365
Li     -7.84276696     6.54933683    -9.79807111    -0.15792467     0.00479842    -0.43631141
Li     -7.97378130     6.46951510    -5.91728866     0.41029563     0.20951059     0.36448448
Ti     -1.87956734     2.17698812    -3.94845164    -0.54554747     0.83568211     0.63658768
Ti     -5.76481925     6.69531157    -7.72639494     0.20981054    -0.62436700    -0.95546377
Ti     -7.88384081     4.46788290    -7.66700013    -0.08135481    -0.22467799     1.08407516
Ti     -8.01513642     4.53481006    -3.74251555     0.44193174    -0.37326699    -2.74889515
Ti     -3.85376477     4.27499848    -7.78899630    -0.03992911     1.35844811     2.00066714
Ti     -4.08265641     4.40600596    -3.76394771     0.65443821    -0.89145451    -1.55265425
Ti     -6.10256852     8.58905267    -2.10989882     0.66310784     2.21426693    -0.02697838
Ni     -5.85181315     2.47257727    -7.94097371     0.68751408     0.09784040    -0.67539069
Ni     -5.86683005     2.26795100    -3.97626556     0.14184072    -0.06941887    -0.63810463
Ni     -9.84689543     6.57735376    -7.94236801     0.90301486    -0.29230348     0.47945431
Ni     -9.84159261     6.53936703    -4.12944094    -0.32055699     0.10004651     0.19714806
Ni     -1.85762922     1.86003047    -7.98202570     0.02982551     1.03876551    -0.45918268
Ni     -5.88791027     6.56086677    -3.98686162    -0.11201951     0.02296398    -0.63878260
Ni     -5.85322051     8.72537389    -5.97859794     0.12279799    -1.90411484    -0.16844082
Mo     -6.03838512     0.04790023   -10.27116403     0.95688930     1.97169985    -0.89873893
Mo     -9.82472793     8.61628276    -6.39721288    -1.66362888     0.25606928     0.87892659
O      -1.85876437     1.94183574    -1.98258751     0.09047849    -0.71960980    -0.32584194
O      -1.97698004     1.75850085    -6.17318999     0.62873320     0.96943198     1.24631523
O      -5.91428836     6.80996635    -2.12182056    -0.12824153    -1.78717830     0.43233032
O      -5.73900548     6.80415445    -5.89132709    -0.61146268     0.50592117     0.60953124
O      -5.82740472     2.06173438   -10.10913031    -0.53009419    -0.98739117     0.12786516
O      -6.01221441     1.83667155    -5.92199151     1.49917931     0.06445896     1.08927301
O      -9.75955412     6.97514640    -9.78718465     0.17555336    -0.42653203     0.88193130
O      -9.95513674     6.64103954    -6.06050782     1.42377497     0.38509588    -0.47808126
O      -3.85730806     2.45620213    -3.96088028    -0.06060877    -1.34181110    -0.71409317
O      -3.81836071     2.41850616    -7.93802818    -0.37817886    -0.95468673    -0.11416844
O      -7.72971542     2.55175000    -3.93759725    -0.68884526    -0.44506091     0.27177679
O      -7.72126280     2.53626783    -7.97923843    -1.32324297     0.25662308    -0.31419468
O      -3.81311983     6.34186150    -4.00867871    -0.74322626     0.02307259     0.45424224
O      -3.95528147     6.38998500    -8.01893276     0.46790423    -0.37826640     0.14691739
O      -7.94035470     6.47105449    -3.92808246     0.63472162     0.15395938    -0.64382593
O      -7.70101655     6.36814959    -7.86019314    -1.11078744     0.28103083    -0.44165104
O      -3.89290469     4.26432408    -2.04414234    -0.08896731     0.56898644     0.94182187
O      -3.82629461     4.41772423    -5.98006093     0.06487821    -0.01083478    -1.49669567
O      -7.95079097     4.68455241   -10.02754722     0.35089255    -1.05164364     2.84015084
O      -7.73477409     4.51727170    -5.84701729    -0.52154833    -0.38351366    -2.92228293
O      -4.00387970     0.08327913    -2.03363705     0.49761767    -0.19821499     0.10620887
O      -7.97461734     8.45116102    -6.13252458    -0.16095946     1.01304720     0.35442908
O     -11.60754435     8.49552139    -6.04614949     0.36404214     0.52601055    -0.34359419
O     -11.71066456     8.66345716   -10.17092258    -0.19297012     0.75729178     0.51781063
O      -1.97890854     4.14476781    -4.07476241     1.54595549    -0.48778061     0.58361979
O      -9.85067055     4.73270797    -4.19825502     0.17737164    -0.77793977     0.47178734
O      -5.93251860     4.62161846    -4.11006133    -0.22916375     0.08614966     0.87180649
O      -5.79132887     4.46913116    -8.09324471    -0.98435493    -0.80000184     0.63319943
O      -1.78946701     0.18728849    -3.99726742    -0.76181868     0.38359571     0.11118107
O      -5.69392290     8.49386914    -8.07325474    -0.93621414     0.20810429    -0.73077812
O      -9.79687898     8.32401532    -4.06471317     0.02239300     1.53696564     0.36140312
O      -5.92651743     0.64851993    -8.07743508     0.05019843    -0.55052592    -1.25251156
