# total energy = -630.28129889 eV

CRYSTAL
PRIMVEC
        0.00285542     0.02004370    -7.95977623
       -7.82940539     0.00763210    -3.98158109
       -3.91729101     8.74642787     0.01461334
PRIMCOORD
56 1
Li     -4.01000973     2.52495451    -2.04857042     0.17869762    -0.63369535     0.55569672
Li     -3.85428740     2.19884918    -5.94760361    -0.07722857     0.10431340    -0.09082991
Li     -7.93991575     1.84481586   -10.01598166     0.59889585     0.29304784     0.07454459
Li     -7.77726994     2.19652447    -6.08392531    -0.00528906     0.18779187     0.58029159
Li     -3.86247790     6.30668640    -2.00196956    -0.67404035     0.03841011     0.49995388
Li     -3.92021290     6.45630740    -5.80600275     0.07366032     0.60559739    -0.27742267
Li     -7.97082435     6.37242479    -9.80876977     0.36159908     0.53181937    -0.96331058
Li     -7.84674358     6.39376912    -5.80146225    -0.14757247    -0.49050311    -0.14396816
Ti     -1.98545649     2.34905086    -4.02438464    -0.24451190    -0.49320054     0.07171814
Ti     -5.92613960     6.84121758    -7.83686720     0.62093310    -0.22125843    -0.75320282
Ti     -7.83214645     4.37553263    -7.89230761     0.31526529    -0.57239702     1.64652281
Ti     -7.88428610     4.32039038    -3.74423135     0.78830236    -0.49770382    -0.31316439
Ti     -4.06153262     4.35290598    -7.70450091     1.12206664    -0.05143982    -0.85851477
Ti     -4.06143572     4.47858709    -3.88754683    -0.57890375    -0.68946170     0.38023923
Ti     -1.86655446     0.04578012    -2.28898686     0.08349932     0.43665825     0.38981967
Ni     -5.81859489     2.27389081    -7.90517657    -0.74417018    -0.39338898    -1.19752927
Ni     -5.85269623     2.14753681    -4.03390881     0.10909598     0.97070408    -0.43341628
Ni     -9.76511922     6.39135665    -7.81886489    -0.59910612     0.61451917    -0.19051839
Ni     -9.84807380     6.24798150    -3.95490231     0.02450634     0.19094274     0.50494836
Ni     -1.94773751     2.30896532    -7.96523304     0.04928212    -0.66509447    -0.40299240
Ni     -5.94509008     6.69082746    -3.91012159    -0.23266259    -0.35631022     0.32212354
Ni     -5.91609825     8.75820583    -5.97804725     0.27439953     0.29776846     2.32669928
Mo     -5.82967150     0.06230201   -10.20340865    -0.22364907    -1.61741813     0.82426365
Mo     -9.67739158     8.67625888    -6.22630961    -1.66970168     0.15079467    -1.31457880
O      -2.06070952     1.94569539    -2.04044117     0.37716322     0.14153425     0.42987345
O      -1.95183340     1.93615607    -5.96382646    -0.09560021    -0.78106345    -1.06229075
O      -5.98454722     6.92144497    -1.87447426     0.50660070    -0.17448872    -0.67744628
O      -6.02457933     6.80996272    -5.82207444     0.78245821     0.86978756    -0.67880234
O      -5.98800910     1.96078866    -9.94031757     0.32606941     0.55242347     0.18350210
O      -5.72851686     1.99932788    -5.97426002    -1.18403529    -0.33378458     0.14482826
O      -9.84695420     6.89065717    -9.76441462     0.76145833     0.37462291    -0.48053484
O      -9.86010476     6.79443815    -5.84275982     0.86456605     0.56584241    -0.27959860
O      -3.84086078     2.40447917    -3.98860374    -1.94992759     0.40287507    -0.35540092
O      -3.86414925     2.44955872    -7.90251604    -0.41998866    -0.39278641    -0.44208934
O      -7.80259112     2.36478476    -4.14135570    -0.42210537     0.37690054     0.91450505
O      -7.92262553     2.36621845    -8.02316693     1.21559410     0.46303439     0.17488777
O      -3.82629252     6.37973397    -3.89232822    -0.74942690     0.34141067    -0.14818125
O      -4.01960890     6.28586928    -7.95206987    -0.11489635     0.74361559     0.03145261
O      -7.88681019     6.28720702    -3.89936116    -0.39579181     0.19504226    -0.41027469
O      -7.85805055     6.34721301    -8.01798368     0.56890030     0.54641176     1.53848924
O      -3.95840123     4.37711715    -2.11938716     0.41294785     0.42745015     0.70696652
O      -3.81605481     4.51886109    -5.98685984     0.02176068    -0.21473230     1.55449866
O      -7.69013798     4.53609289    -9.95496264    -0.34362215    -0.70279712     0.12230653
O      -7.74040551     4.42629916    -6.09739388    -0.16087140     0.20365708    -0.54179580
O      -4.03459042     0.16507407    -9.76919541    -0.86800930    -0.73697149    -0.87356471
O      -4.05642927     0.16620032    -6.06963655     0.97847006    -1.20644741    -0.12964374
O      -7.85225784     0.20401844    -6.15323203     0.80572801    -0.92283803     0.40919657
O     -11.67052744     8.68449555    -9.95214758     1.22576330     0.38963403    -0.02272766
O      -1.98315274     4.21988583    -3.97536385     0.48992763     0.59100238    -0.49455282
O      -1.98909721     4.21353695    -7.97844917     0.55813878     0.63793605    -0.28706184
O      -5.87276024     4.06062861    -4.04903579    -0.96568684    -0.12492290    -0.25065635
O      -5.85095938     4.30121163    -8.03412532    -1.20792902    -0.42232625     0.08578285
O      -2.27555153     0.29910314    -4.06652103     0.88420987    -0.77293459    -0.31509437
O      -5.72492192     8.64411612    -7.75894132    -0.57171802    -0.15436457    -1.15392576
O      -5.74081760     0.19362132    -4.06394635    -0.60163804     0.42273380    -0.44949625
O      -5.86047734     0.29526782    -8.04000851    -0.27995402     1.29786812     1.57942630
