# total energy = -630.58982416 eV

CRYSTAL
PRIMVEC
        0.00285542     0.02004370    -7.95977623
       -7.82940539     0.00763210    -3.98158109
       -3.91729101     8.74642787     0.01461334
PRIMCOORD
56 1
Li     -3.91064036     2.16890372    -1.96280765    -0.23321344     0.17980898     0.26127691
Li     -4.02650109     2.34171413    -6.02009119    -0.04318862    -0.38399288     0.36170409
Li     -7.89296913     2.06150043    -9.81305597     0.72324215     0.24483914    -0.53323009
Li     -8.00311265     2.17698100    -5.93529105     0.57937214     0.31383664     0.11130877
Li     -4.07315157     6.42661644    -1.92607998     1.21093153     0.00381153    -0.47890031
Li     -4.00575765     6.35417349    -5.92757109     0.56845787     0.30982445     0.43112823
Li     -7.77381068     6.56190005    -9.97544001    -0.09249406    -0.03932266     0.52558981
Li     -7.90779107     6.21936499    -5.95868552     0.33451506     0.79368349     0.59306038
Ti     -2.04180981     2.42132450    -4.05054917     0.98593912    -0.73522016     0.46770308
Ti     -5.71927964     6.78452523    -7.94183037    -2.19332384    -0.26291304     0.39920537
Ti     -7.77927924     4.48978568    -7.68189968     0.06111695    -0.92417729    -0.53902184
Ti     -7.99677851     4.45854856    -3.67463916     0.08993939    -1.32166150     0.99287260
Ti     -3.91973198     4.27996171    -7.71488154    -0.08751598    -0.57600130    -0.53545353
Ti     -4.16083362     4.41146067    -3.77923566     0.21101500     0.06571762     0.86954412
Ti     -5.77366440     8.69191924    -2.29605145     0.97539227     0.53402165     0.81732149
Ni     -5.94371516     2.27519185    -8.02597979     0.07616037     0.76664046     1.10432752
Ni     -5.99181403     2.35592867    -4.02994693     0.33196242    -0.48197350    -0.41474774
Ni     -9.76584144     6.51498191    -8.00782502    -0.26497081    -0.16824188     0.21945507
Ni     -9.73280458     6.36068412    -3.93935149    -0.61095140     0.29889351     0.06164126
Ni     -1.91868198     1.98274569    -7.88514992    -0.27739217     1.09786063    -0.72087447
Ni     -5.91304187     6.54757248    -4.05001027     0.67100875    -0.16614633     0.51570686
Ni     -5.82861703     8.73979777    -5.87293190    -0.32726173    -0.30165480    -0.52232622
Mo     -5.77713606     0.02891238   -10.28909766    -1.41059639    -0.34447162    -0.82583047
Mo     -9.65532779     8.74110829    -6.15791101    -0.89469945     0.82418971    -0.25506235
O      -2.04565177     1.88977259    -2.02626299     0.24459684    -0.60007375     0.33610799
O      -1.91408528     1.86366421    -5.92795097    -0.19111029    -0.28004833    -0.88034985
O      -5.86420260     6.75407673    -1.99545386    -0.74297928     0.17491200     0.11328478
O      -5.95517784     6.83597180    -5.89903993     0.57781721     0.37574213    -0.13877387
O      -5.85950594     1.97247927    -9.94027179    -0.05585647     0.77625357    -0.33280904
O      -6.07052809     2.01634429    -5.94468118     0.72899781    -0.23588324    -0.42969909
O      -9.67581588     6.84165170   -10.00581510    -0.22732061    -0.38488224     0.62062959
O      -9.77643987     6.92001838    -5.92414827    -0.00212920    -1.17799218    -0.11476856
O      -3.92492131     2.41850416    -4.06330063    -1.03216509     0.54090787     0.51951818
O      -4.00877868     2.33232889    -7.93221372     0.50986738     0.50624507    -0.09026746
O      -7.83940762     2.47536437    -3.99201729    -0.99294782    -0.30322247     0.68433570
O      -7.87909000     2.43246654    -7.93145697    -0.14470690     0.32767480    -0.17957324
O      -3.89378601     6.30268373    -3.98763541     0.17807647     0.29951083    -0.26138371
O      -3.91937833     6.35554403    -7.86721103     0.56730199    -0.37874143    -0.36001326
O      -7.78454416     6.41551271    -4.00136540    -0.95480841    -0.88814109     0.21228994
O      -7.77173567     6.53362330    -7.95333095    -0.24957697    -1.80363694     0.52656093
O      -4.11009090     4.41861184    -2.00338560     0.28606895    -0.20877850    -0.41890952
O      -3.91749935     4.32123956    -5.95205709     0.20582542     0.33124294     0.15788036
O      -8.04339037     4.37588022    -9.82063096     0.44568291     0.37278531    -1.61590988
O      -7.95677203     4.25447486    -5.93119713    -0.15741886     1.16234628    -0.99233487
O      -4.01873179     0.03508376    -9.96985602     2.03472501    -0.22051349     0.16412762
O      -4.03028873     0.17359705    -5.89431109    -0.24209325    -0.29553155    -0.45202910
O      -3.95250147     8.59264402    -1.94691695    -0.50871289     0.66299688    -0.72333593
O     -11.41912677     8.68317589    -9.93684577    -2.11285016    -0.09608502     0.74436100
O      -1.97555295     4.25191226    -3.98483323    -0.71992286     0.61012597     0.18507617
O      -2.05892609     4.32102557    -0.16954245     0.71498311     0.34787126     0.42172395
O      -6.06506617     4.32302208    -4.05810277     0.83525524    -0.33805885     0.07708479
O      -5.86938116     4.29716325    -7.81935712    -0.50658672     0.29414648    -0.77227615
O      -2.05127452     0.25753273    -4.07297822     0.33513114    -0.22245469    -0.16981323
O      -5.77878257     8.55426097    -7.78731650     0.08788251     1.32633813    -0.01422877
O      -6.01922617     0.37363886    -4.13106947     0.66017105     0.58327714     0.21456098
O      -5.91593992     0.44939827    -7.95209390     0.14483589    -0.28940471     0.12306933
