# total energy = -630.61250313 eV

CRYSTAL
PRIMVEC
        0.00279571     0.02951795    -7.98606283
       -7.83802570     0.01298533    -3.99532603
       -3.92160916     8.71933433     0.00634407
PRIMCOORD
56 1
Li     -3.99086660     2.28759216    -1.78066357     0.51882187    -0.20099116    -0.49708254
Li     -3.89121610     1.91018913    -5.96004978    -0.17090843     0.20525397    -0.12973843
Li     -7.86618939     2.38031680   -10.06863634     0.44745377     0.14586635     0.31581367
Li     -7.82361074     2.09079174    -5.95660552     0.03282397    -0.02413428     0.10359619
Li     -4.07865195     6.27600936    -1.98226026     0.42974329     0.34282675     0.15253248
Li     -3.91830166     6.37418891    -5.88033654    -0.22965780     0.25932280     0.17609788
Li     -8.09541053     6.25429075    -9.85151657     0.55518631    -0.04642984    -0.60435155
Li     -7.67456723     6.73347616    -5.70919389    -0.99744568     0.18668169    -0.56813413
Ti     -1.94153914     2.15308224    -4.13213250     0.05312118     0.56350156     1.49773901
Ti     -5.84989579     6.64677577    -7.98508075    -0.43403598     0.81460902     0.20783925
Ti     -7.73430971     4.31964243    -7.65270939    -0.78908022    -0.62834910     0.51801411
Ti     -7.71667432     4.31358768    -3.87002693     0.02157373     0.72954375     0.41675940
Ti     -3.78567044     4.36240445    -7.63655734     0.80052971    -0.39572726    -0.09837565
Ti     -3.91309451     4.34271408    -3.71091914     0.91457796    -0.59265739     0.04628409
Ti     -6.23200182     8.68767968    -2.10260166    -0.71749219     0.88009055     0.59973686
Ni     -5.78341839     2.34391318    -7.94824686    -1.18095962     0.45832644    -0.60642344
Ni     -5.81355961     2.20944803    -3.91081068    -0.19117824    -0.75380548    -2.08611912
Ni     -9.75207739     6.65649561    -7.87283464     0.07038803    -0.86206337     0.67396052
Ni     -9.72214644     6.55455699    -4.08889474    -1.17919828     0.14345366     0.30157896
Ni     -1.82448319     2.10753648    -8.00684986    -0.64803141    -0.08502918    -0.05030405
Ni     -5.84351107     6.62015322    -3.96792337    -0.10567286     1.80637004     0.40358452
Ni     -2.08654822     0.09470276    -6.05559591     0.70558510    -1.09502209     0.20924999
Mo    -10.09037291     8.74636924   -10.26101004     2.20574054     2.11171318    -1.16766623
Mo     -9.87652022     8.70769385    -6.45683988    -0.06469969     0.72886120     2.07845904
O      -1.93597682     1.85744803    -1.93011624     0.20650034     0.09648806     0.11718646
O      -1.91744912     1.99494615    -6.03734117    -0.40914411    -0.90713132    -0.48749787
O      -6.06462156     6.76163904    -1.94132162     0.93032924    -0.48373874    -0.79018056
O      -5.91053730     6.98651299    -5.97277198     0.53806248    -0.66486893    -0.10119916
O      -5.84515474     2.03888285   -10.11845011    -1.19206050    -0.39053190     1.00666978
O      -5.73513739     1.90676222    -5.89836823    -1.03474430    -0.39370045    -0.03733587
O      -9.87369890     7.01997198    -9.70096694     0.55125485    -0.74332270     0.04876058
O      -9.72784281     6.87627249    -5.95049112    -0.14450504    -1.21813160    -1.26228192
O      -3.94704154     2.27001126    -3.98080547     1.28218548     1.43368373    -0.02799290
O      -3.78965355     2.45270463    -7.86951840     0.10643999    -0.16579755    -0.18127588
O      -7.72288275     2.28634153    -4.04980737    -0.25710327     0.95272646     0.81947929
O      -7.82294729     2.35139709    -7.97540309     0.15332488     0.38149076    -0.45772436
O      -3.70545549     6.35574833    -3.96241995    -0.65553385    -0.21386734     0.95579445
O      -3.99146637     6.33030053    -7.93116621     0.29507597     0.14069172    -0.39175824
O      -7.91708050     6.39672175    -3.90161021     1.08662125    -0.58221916    -0.41918160
O      -7.81261279     6.23132045    -7.97632559    -0.18852200    -0.16534510     0.82264788
O      -3.99269850     4.30572885    -1.92820442     0.27009605     0.30731951    -0.82989734
O      -3.90938868     4.50757485    -5.87826307     0.06369016    -0.42758352    -0.38785368
O      -7.94693705     4.35481557   -10.09576345     0.18403450    -0.71878271     0.15598449
O      -7.88889937     4.06520571    -5.90045448     0.31798848     1.08516584    -0.55456683
O      -4.08018431     0.24558044    -2.04633725    -0.20971007    -1.17391731     0.32513014
O      -7.94923110     8.62758144    -6.13617942    -0.20811401     0.74784562    -0.32933340
O     -11.63963493     8.69941839    -6.05799641     1.16136566    -0.09485452    -0.28824068
O      -0.05631917     0.07990261    -6.18348738    -1.10493058     0.23016185     0.28339935
O      -1.86229852     4.06054083    -3.93020454    -1.19272943    -0.40379372    -0.33339316
O      -9.77140516     4.74297968    -4.04048453     0.11322444    -0.68685167     0.02439185
O      -5.73738089     4.84979838    -3.94273240    -2.02409504    -1.21198910    -0.42898407
O      -5.84257901     4.24693382    -7.98308241     0.32892617     0.35882060     0.39577024
O      -1.97080847     0.11100034    -3.95011926     0.16175843     0.01341298    -0.91201705
O      -5.86290967     8.45547873    -8.12686199    -0.19623663     0.56608993     0.52568015
O      -9.81457013     8.51664235    -4.07753759     0.00784785    -0.51139672     0.90857225
O      -6.11003018     0.56693468    -8.20683103     1.09663213    -0.24115382     0.01677464
