# total energy = -630.55646411 eV

CRYSTAL
PRIMVEC
        0.00285542     0.02004370    -7.95977623
       -7.82940539     0.00763210    -3.98158109
       -3.91729101     8.74642787     0.01461334
PRIMCOORD
56 1
Li     -3.79668601     2.33400855    -1.96129225    -0.40360336    -0.03183882     0.07614619
Li     -3.93050516     2.23792068    -5.95761458    -0.46583946     0.37475038    -0.09440739
Li     -7.89358213     2.36326838    -9.92535024     0.28973891     0.11195569     0.12965218
Li     -7.70326082     2.06105491    -5.84310632    -0.14322833     0.32666275    -0.40695730
Li     -4.02437542     6.62961662    -1.90008336     0.57087981     0.04799113    -0.87547980
Li     -3.89800206     6.51554996    -5.95254102     0.16960931     0.00934859     0.59393437
Li     -7.83459603     6.56209129    -9.85505441    -0.55993826    -0.54330987    -0.54782255
Li     -7.66456133     6.36754744    -5.76268739    -0.36676949     0.12799980    -0.84930145
Ti     -1.95070028     2.19651115    -4.02235873     0.91323389     1.01311083     0.37262418
Ti     -5.88986551     6.69297259    -7.91704741    -0.14132300     0.68619617    -0.12859402
Ti     -7.77292418     4.43880139    -7.70015402    -0.38095725    -1.89276077    -0.36722792
Ti     -7.83163096     4.33337831    -3.82719890     0.31196066     0.22872162     0.93952407
Ti     -3.83576849     4.51739000    -7.80940600     0.28203511    -1.38578584     0.94864683
Ti     -4.01696315     4.44491377    -3.82285546    -0.58277003     0.43608616     0.23673907
Ti     -2.15196546     0.01385526    -2.07785169    -0.43050742     0.57085184    -0.26439724
Ni     -5.75041140     2.33005462    -8.07073014    -1.54890129     1.10944326     0.63004576
Ni     -5.99168423     1.86425221    -3.93897261     0.50307839     0.81422223    -0.66233709
Ni     -9.83179547     6.60649546    -7.76232083     0.22870516    -0.04014282    -1.66090679
Ni     -9.75664514     6.51887328    -4.12634226     0.71864106    -0.61359445     1.48250794
Ni     -1.99254370     2.05613964    -7.88835355     0.45991471     0.36018476    -0.34411511
Ni     -5.94214189     6.77245604    -3.90863021     0.64518312    -1.49987230    -0.98920130
Ni     -5.93364868     8.72676064    -5.93502902     0.02068567     0.08210143    -0.76367686
Mo     -5.99743797     0.08434786   -10.19709342    -1.03259072    -0.71394167     1.18896849
Mo     -9.71834620     8.63778515    -6.22331717    -1.11384337     1.62219528    -2.22090646
O      -1.73708792     1.94028068    -1.92434146    -1.72275514    -0.99162952    -0.06296144
O      -2.08407795     1.78972062    -5.99310895     0.58152140     0.72738429    -0.19468589
O      -5.86706845     6.81282344    -1.98066862    -0.76854830     0.43669753     0.09099439
O      -5.84990339     6.92261297    -5.97586832     0.34133212    -0.70488380    -0.05563063
O      -5.91696092     1.97892182   -10.09724670     0.32310875     1.01907275     0.97598722
O      -5.85477590     1.83025896    -5.76542364     0.62553662    -0.34017170    -0.25779917
O      -9.76533782     6.99618800    -9.63888819    -0.61013660     0.01867331    -0.10398509
O      -9.68538688     6.71116630    -5.97104749    -0.48726367    -0.17010110     0.08243005
O      -3.80536127     2.43072640    -4.01793736    -0.76218970    -0.32449946     0.43022955
O      -3.93998227     2.55784917    -7.92210482     1.47040499    -1.07225378    -0.51902077
O      -7.85016757     2.41984479    -3.86398318    -0.44395339    -1.38110394    -0.56313127
O      -7.75078771     2.45883509    -7.89435628    -0.06013444    -0.36273705    -1.09396940
O      -3.86588755     6.42960360    -3.86350527     0.32162787    -0.43110334    -0.29321017
O      -3.89160517     6.47111818    -8.05041085    -1.04465471    -0.29859271     1.01477880
O      -7.85247476     6.26072985    -4.00034709    -0.60927132     2.31705645     0.46732754
O      -7.88893063     6.36352621    -7.95487108     1.08312029     0.09116460     0.74133956
O      -3.97770070     4.21918484    -2.06451467     0.02866842     0.56300270    -0.29321356
O      -3.91574220     4.36836639    -6.01414489     0.42698295     0.54564743    -0.32996315
O      -7.82798724     4.44699739   -10.01556413     0.06533030    -0.40345511     0.45371356
O      -7.65690047     4.26276956    -5.96996403    -0.25314619     0.60159927     0.09055642
O      -4.08625079     0.15372392    -2.12437182     2.53819529    -0.13770101     0.45466648
O      -7.89992740     8.55800855    -6.04703620     0.43123081     0.57809740     0.21916012
O     -11.57629220     8.72341706    -6.06574301     0.37397370    -0.81132176     0.45823111
O      -7.80802040     0.16530104   -10.04521207    -0.12087447    -0.69768825    -0.09622270
O      -1.88428152     4.11498600    -3.92325087    -0.63635669    -0.16718411    -0.52889833
O      -9.74784645     4.68828627    -4.12550586    -0.73665052    -0.47103121    -0.06918066
O      -5.93554729     4.81970296    -4.19571606     1.39964092     0.39604518     0.99665456
O      -5.80375610     4.35326005    -8.06678495    -0.36315239     1.00228508     0.07384123
O      -1.98613836     0.12434452    -3.98739864     0.00303401    -0.02632089     1.10268711
O      -6.03476109     8.52854274    -8.08887956     0.37783071    -0.17039567     0.54260437
O      -9.71973717     8.40591503    -4.00544313    -0.26931400    -0.45811267    -0.94987660
O      -5.84045252     0.53024361    -8.06947943     0.37090655    -0.38507258     0.82601995
