# total energy = -630.63949670 eV

CRYSTAL
PRIMVEC
        0.00285542     0.02004370    -7.95977623
       -7.82940539     0.00763210    -3.98158109
       -3.91729101     8.74642787     0.01461334
PRIMCOORD
56 1
Li     -3.78392067     2.40030582    -1.93169169    -0.18609544    -0.04431931    -0.32686780
Li     -3.95593485     2.10239539    -5.80380208    -0.27111390    -0.00922109    -0.88621859
Li     -7.82277241     2.35440592    -9.85476779    -0.09999517    -0.13561728    -0.43032670
Li     -7.83000992     2.08273207    -5.95059814     0.09672578     0.32263975     0.10902087
Li     -3.77235687     6.30283349    -1.95138912    -0.55029298     0.10880382    -0.19597890
Li     -3.83441697     6.82120052    -5.88102932    -0.32568734    -0.38572750    -0.07564362
Li     -7.96625050     6.25997977    -9.89473867    -0.02640737     0.45276057     0.36786713
Li     -7.84390671     6.17429019    -5.76193183     0.07052018     0.39262508    -0.36982783
Ti     -2.02810130     2.21688280    -4.03884365     1.10244314    -0.23026715     0.85352199
Ti     -5.81192032     6.66777189    -7.87885371    -1.12494776    -2.55471583     0.09313684
Ti     -7.78207087     4.31284093    -7.76123110     0.38628305     0.06719065    -0.09006803
Ti     -7.93353636     4.28680176    -3.74126582     1.17473560     0.16930186    -0.33643243
Ti     -3.73795641     4.35608819    -7.78297934    -1.53961647    -0.39360839    -0.04803655
Ti     -4.06191883     4.43196160    -3.90639651     0.77046446     0.01814827     1.02760571
Ti     -6.10123704     8.61055044    -2.04245264     0.83134815     1.57085467    -1.18495518
Ni     -5.72652504     2.36907731    -7.95512432    -2.13031798     1.70339623     0.24363975
Ni     -5.83795647     2.20588035    -3.98919884    -1.11873593    -0.30115273     1.12046978
Ni     -9.75527084     6.71377871    -7.85683235    -0.52261835    -0.34566899    -0.21078670
Ni     -9.80354204     6.54346189    -4.01749024     0.69018078    -0.13775752     1.00528603
Ni     -2.05151232     2.01724688    -7.94552489     1.23648519     0.23386652    -0.38292578
Ni     -5.84751916     6.66119761    -4.01057785    -0.84970872    -0.38711238     0.90605289
Ni     -5.98203243     8.70714348    -6.00367975     0.03285216     0.30232662     1.03827521
Mo     -5.93981646     0.21927306   -10.23318544     0.85193766    -0.51156607     0.29530632
Mo     -9.82364345     8.68150274    -6.25274700     0.15088671     0.62677523    -0.39175321
O      -1.84788961     1.91916419    -1.99436114    -1.12265512    -1.20990242     0.30208212
O      -2.00090629     1.85956620    -6.06324694    -0.23928045    -0.81408985     0.12514252
O      -5.99853984     6.76233865    -1.98481028     0.96727658    -0.52762127     0.09260487
O      -5.83626049     6.86314180    -5.91876085    -0.47670573     0.08857044    -0.09231831
O      -5.86598660     2.14312753    -9.96204243     0.74732434    -0.78966610    -0.87700452
O      -5.91751300     1.92903950    -5.82998820     0.41792503    -0.23170910    -0.11904630
O      -9.85823129     6.95926847    -9.68319624     1.30186046     0.89671048    -0.77034977
O      -9.77116832     6.75227824    -5.98140158     0.62399891    -0.06697667    -0.16032204
O      -3.96709324     2.38091240    -3.90833948     0.38491624    -0.01712655    -0.86956052
O      -3.90580508     2.41334152    -8.03786516     1.22304981     0.14920641     0.46034320
O      -7.73096026     2.36353459    -3.96064207    -0.63629947     0.27981757     0.20055046
O      -7.87371122     2.41143424    -7.96042738     1.05695135    -0.93147375    -0.21552399
O      -3.89723642     6.35988371    -4.05415805     0.83683515     0.33989485     0.95506813
O      -3.94773515     6.31871259    -7.85108919     0.68944368     0.74764639    -0.96478987
O      -7.91175217     6.41030287    -3.79812281     0.32848604    -0.79968802    -1.40630035
O      -7.77788794     6.27613868    -7.85715901    -0.45204687     0.52887891    -0.26672123
O      -3.71918357     4.28475259    -2.12973704    -0.33218231     0.92910271    -0.48285419
O      -3.69922757     4.34190470    -6.05229650    -0.01686595    -0.61116613     1.87304287
O      -7.91374513     4.35280182    -9.94147012     0.16637405    -0.19875201    -0.07037482
O      -7.84198470     4.25906501    -6.03447021     0.11836934     0.38553934     1.70241607
O      -7.87392479     8.76290362    -9.84456439    -1.23672517     0.73738441    -0.17505002
O      -4.05355728     0.08995737    -5.98591234    -0.98780130    -0.55651552    -0.35964122
O      -3.83851822     8.57173829    -1.98301994     0.94020924     0.37689880    -0.05028072
O      -7.64849249     0.16710122    -9.92867484    -1.03617087    -0.19970374    -0.48439878
O      -1.85699129     4.04002443    -4.07975498    -1.75196659     0.38637874    -0.17170733
O      -9.72844692     4.64643661    -4.11468523    -0.12166396     0.54506108    -0.14594580
O      -5.90654882     4.69899754    -3.96783563    -0.49559876     0.12230274    -0.40840642
O      -5.77001273     4.35119144    -7.94531742     0.10313370    -0.18135335    -0.36228691
O      -2.01674474     0.12310445    -4.05055274     0.11749543    -0.42863992     0.72165628
O      -5.94989010     8.41632335    -7.92759086     0.39249045     2.18411597    -0.51161366
O      -9.73704226     8.39802839    -4.01327356    -0.35458625     0.14091778     0.40207518
O      -5.94324498     0.64600540    -8.00721202     0.46596087    -1.94967114     0.00562414
