# total energy = -629.99965530 eV

CRYSTAL
PRIMVEC
        0.00279571     0.02951795    -7.98606283
       -7.83802570     0.01298533    -3.99532603
       -3.92160916     8.71933433     0.00634407
PRIMCOORD
56 1
Li     -4.06397683     2.20272746    -1.98810202     0.71007787     0.13236219     0.37795809
Li     -3.97273732     2.40275203    -5.90774917     0.15727318     0.01944312    -0.51832570
Li     -7.81625432     2.31727429   -10.15149416     0.15325226    -0.41019263     0.87023598
Li     -7.71617093     2.15120783    -6.12690648    -0.17366109     0.24498093     1.11922295
Li     -4.10795699     6.44622360    -1.98876542     0.59056225    -0.32998470    -0.01980680
Li     -3.81395771     6.70938798    -5.72639308    -0.43499128     0.02566118    -0.83792380
Li     -7.86087352     6.45794366    -9.91630260    -0.42463215    -0.30551746    -0.26753407
Li     -7.80489111     6.62143741    -6.03474099     0.28241565    -0.47921623     0.68702188
Ti     -1.99054442     2.14513226    -3.99399189     0.39609385    -0.08357249    -0.20655348
Ti     -5.90331491     6.64652480    -8.02394421     0.22233561    -0.31915145     0.52652608
Ti     -7.96306727     4.37774942    -7.78898055     0.97346100     0.29889445    -1.39748698
Ti     -7.86192352     4.30616040    -3.88611470    -0.32347859    -0.34500349    -0.22075870
Ti     -3.95850537     4.44329206    -7.77366262     0.09769107     0.22717335    -1.19184044
Ti     -4.02458687     4.37011644    -3.81472689    -0.44290208     1.77869678     0.59746512
Ti     -1.75160198     0.06344360    -1.95482194    -1.11129546     0.22150937     0.05480977
Ni     -5.88690162     2.14093558    -7.95962984     0.59044561     0.10346894    -0.75196787
Ni     -5.93777358     2.21522763    -4.01489707     0.34953680     0.94642337    -0.79948014
Ni     -9.85635697     6.61475902    -7.84761205     0.76601096     0.36325172    -0.37077119
Ni     -9.74281066     6.41248499    -3.90593832    -0.51137858    -0.16239900    -0.84793606
Ni     -2.00238949     2.23737810    -7.89564762     0.02568911     0.22974481    -1.25518205
Ni     -5.90889783     6.67463811    -4.03483952    -0.05397648    -0.06897484     0.10750599
Ni     -1.97949880     0.04537056    -5.86248406     1.00527981    -0.59065936    -1.23771715
Mo     -9.76960050     8.73634986   -10.35837855     0.02527089     0.25005112     2.08320808
Mo     -9.74438346     8.57262634    -6.29634829    -0.56132394     1.35992447     0.45706360
O      -2.01541798     1.95361783    -1.99226645     0.00114951    -0.08391126     0.05733572
O      -1.92758211     1.83906896    -5.99494411    -0.86506097     0.76135166     0.49473991
O      -6.12171643     6.80427079    -1.98216152     2.03097978     0.89252711    -0.65265432
O      -5.76590292     6.96073818    -5.95268972    -0.74609862    -0.34831646     0.86858048
O      -5.87092620     2.01026418    -9.87680537    -0.61603973     0.40330346    -0.58933735
O      -5.77549809     1.98840851    -6.02978547    -1.00360687    -0.83356506    -0.46849444
O      -9.72964338     6.84531094   -10.01020455    -0.41729903    -0.51108602     0.53028313
O      -9.71934269     6.74126505    -5.82930847    -1.35741405     0.03576513    -0.52027713
O      -3.93427138     2.52040491    -3.97727857    -0.45211348    -2.42878633    -0.02983347
O      -3.93606987     2.53777226    -7.98451394    -0.39751368    -1.21879640    -0.15475941
O      -7.87087217     2.31876154    -4.05488610    -0.33922412     0.36884972    -0.35515766
O      -7.91981557     2.34459774    -7.96586230     0.86375499     0.81661186    -0.15265441
O      -3.88727559     6.44532712    -3.90457821    -0.47520308    -0.34015618    -0.14577304
O      -3.91342870     6.40966487    -7.99371273     0.24568723     0.31949653     0.14601632
O      -7.82767047     6.22558620    -4.03419012     0.02873982     1.18338239    -0.04653701
O      -7.85898880     6.39293771    -7.92748484    -1.24914642    -0.03756647    -0.23557255
O      -3.88017931     4.56256067    -2.07038905    -0.75491394    -0.55636903    -0.30436059
O      -3.99563359     4.35897701    -6.04881299     0.62062229     0.73218089     1.46173937
O      -7.77453348     4.25536227   -10.12878433    -0.47665721     0.47793988     1.20719708
O      -7.88725354     4.42814340    -6.09151766     0.37442453    -0.37600519     1.05436361
O      -4.06987141     0.14390451    -2.04430962     0.02140367    -0.38528177    -0.08808514
O      -8.02356956     8.64943188    -6.04508855     1.29363748     0.32809854    -0.05170930
O      -7.76645226     0.19582739    -5.92755610     0.97219379    -1.31167738    -0.62920863
O      -7.61301470     0.14736848    -9.92663979    -0.88449533    -0.81407856    -0.53343809
O      -2.01245366     4.07928577    -4.03380726     0.10365916     0.49173286    -0.48207839
O      -2.02283568     4.33049901    -0.25434727     0.52947031    -0.17512357     1.33910853
O      -5.92532976     4.10876193    -4.21288342     0.21593657     0.18873497     0.56702972
O      -5.93439158     4.75699980    -8.09292372     0.22373494    -1.07490548     0.30796458
O      -1.96086690     0.15307894    -3.88401237    -0.35108013     0.40462911    -0.85826549
O      -5.85959969     8.56599451    -8.07514492    -0.39036696     0.44481375     1.12326819
O      -5.93603915     0.37886701    -4.11236032     0.33939907    -0.29910973    -1.60618958
O      -5.97298460     0.25894967    -8.12037282     0.59319107    -0.22835677     1.72744527
