# total energy = -630.76684304 eV

CRYSTAL
PRIMVEC
        0.00279571     0.02951795    -7.98606283
       -7.83802570     0.01298533    -3.99532603
       -3.92160916     8.71933433     0.00634407
PRIMCOORD
56 1
Li     -3.98355871     2.17796771    -1.84969074    -0.05203684     0.33496856    -0.12053605
Li     -3.88755304     2.16637896    -5.94512058     0.29976002     0.29563570    -0.25996236
Li     -7.82612109     2.22761979    -9.96999600    -0.27568585     0.35547850     0.47371432
Li     -7.86124118     2.16361078    -5.75651194     0.64734931     0.11837886    -0.97188755
Li     -3.87501241     6.65439393    -2.15162695    -0.51889537    -0.00306420     0.56313666
Li     -3.90207019     6.58255841    -5.91659578    -0.27655656    -0.57100347     0.11190413
Li     -8.05477586     6.43454472    -9.91419682     0.38798032    -0.36770240    -0.21622985
Li     -7.85439440     6.37733617    -5.93812583    -0.00436735     0.43359625     0.25143906
Ti     -1.95030160     2.20234064    -4.01800467     1.15867679    -0.24660579     0.01193385
Ti     -5.77273766     6.61717473    -8.04116281    -0.44263865     0.45922506     0.37215734
Ti     -7.75515278     4.41504845    -7.65492301    -0.76489075    -1.17910733    -0.66629173
Ti     -7.76392048     4.32242599    -3.66172258    -0.31540701     2.29798461    -0.61635832
Ti     -3.82660334     4.38416459    -7.79756850     1.33959827    -0.15622290     1.02231704
Ti     -3.92505087     4.39032878    -3.70079115    -0.54886246     0.80500631    -0.80235018
Ti     -6.24241658     8.70667580    -1.97725990     0.18780468    -0.35537401    -1.15818902
Ni     -5.82425735     2.48369335    -7.91934942    -0.11608108    -1.44833121    -0.78866796
Ni     -5.87610059     2.01491410    -4.03319033    -0.06227281     0.48379574     1.13812635
Ni     -9.79467683     6.77090825    -8.02289175    -0.10518053    -0.59840044     1.04896077
Ni     -9.82142548     6.40088266    -4.14013691     0.63730182     0.97473191     0.29421841
Ni     -1.79786833     2.09334538    -8.04644494    -1.56831415     0.21539127     1.47509374
Ni     -5.97276583     6.66658164    -3.97575109     0.34386550     0.46378089    -0.03119747
Ni     -6.01753567     8.65139081    -6.04630486     1.16623902     1.03320896     0.69566589
Mo     -6.10678008     0.08533873   -10.31921412     0.29804847    -0.13299285     0.38866532
Mo     -9.77464053     8.73776292    -6.32482195     0.38947490    -1.50642165    -0.43769877
O      -1.85401166     1.83736182    -1.96811281    -0.73634600     0.42473696    -0.34437031
O      -1.87077515     1.77010080    -5.91987777    -1.10312314     0.26750610    -0.49729532
O      -5.89081952     6.76811680    -1.96585921    -0.50215406     0.48892180    -0.47405699
O      -5.88384198     6.86823323    -6.05223362    -0.22600676    -0.89287146    -0.12905701
O      -5.93914121     1.98014116   -10.08084251     0.01003431     0.11925682    -0.73843358
O      -5.75357554     1.89281045    -5.90118398    -0.16675153     1.04199783     0.84025047
O      -9.86415947     6.85064936    -9.87179335     0.46733718     1.27915993     0.05496927
O      -9.86065023     6.72736230    -6.11487306     0.84301000     0.77678887    -0.13235625
O      -3.96163683     2.43036494    -3.94614491     0.52431089    -0.64754878    -0.24413573
O      -3.76818138     2.50157954    -7.90420318    -0.38278777    -1.11274331    -0.54575523
O      -7.81936303     2.45601569    -3.89948254     0.73888715    -1.91981407    -0.60498528
O      -7.78883135     2.35503096    -7.93203267    -0.20848445     0.86008209    -0.10548931
O      -3.75566914     6.35586998    -3.99238321    -0.56708865     0.05450743    -0.11665471
O      -3.93303068     6.36816642    -8.04229217     0.22601014     0.19446157    -0.06878686
O      -7.94032957     6.38495058    -4.02983839     0.22066885    -1.11796457     0.58093032
O      -7.85200862     6.32599971    -7.92869135     0.22870302     0.07312924    -0.24248773
O      -4.12604403     4.32988199    -1.98289955     0.88787047    -0.06656080     0.26024052
O      -3.78265215     4.42588243    -6.03611624    -0.96487658     0.05728643     0.42865610
O      -8.05568988     4.33913738    -9.92133725     0.37354886     0.07145790     0.50526066
O      -7.76252250     4.23212703    -5.91258582    -0.12259979     0.44876219    -0.29424373
O      -4.10907521     0.21218466    -9.87511768     0.46493444    -0.79719981    -0.26999238
O      -7.87917433     8.56078740    -5.97535867    -1.11962421     0.68530773    -0.72405856
O      -7.61765266     0.11618847    -5.98702896     0.69847131    -0.78967264    -0.16914301
O      -3.96572415     8.70755319    -6.13800518     0.82438907     0.16189217     0.09569749
O      -1.91638485     4.04515207    -3.93078263    -0.74573579    -0.12317739     0.24594007
O      -9.76416028     4.58201010    -4.06491499    -0.07843748    -0.35676174    -0.55130959
O      -5.92145582     4.80520713    -3.83068800     0.61685511     0.13355870    -0.85774339
O      -5.86912551     4.43320401    -8.10008615     0.01993132     0.16733752     0.78644260
O      -5.94721788     8.66857275    -3.93920000     0.01807653     0.16513407     0.64159431
O      -5.64995000     8.55376692    -8.14440824    -0.91714417    -0.75530819     0.73685530
O      -9.67110208     8.26392020    -4.02041955    -0.75761893     0.44786347    -0.11734166
O      -5.82442383     0.60247680    -8.09188271    -0.33208362     0.00798692     0.33010257
