# total energy = -630.42745740 eV

CRYSTAL
PRIMVEC
        0.00279571     0.02951795    -7.98606283
       -7.83802570     0.01298533    -3.99532603
       -3.92160916     8.71933433     0.00634407
PRIMCOORD
56 1
Li     -3.96992036     2.16338974    -1.92952387     0.19447895     0.33160549     0.18207686
Li     -3.93110591     2.00404760    -5.95584737    -0.06462644     0.19049886    -0.36813781
Li     -7.60157946     2.63319560   -10.02231134    -0.36344001    -0.29485513     0.23707475
Li     -7.84948873     2.17581477    -5.90989957    -0.19522050     0.34582781     0.00367321
Li     -3.71098416     6.41877889    -1.89043548    -1.41015255    -0.34701011    -0.08567054
Li     -3.82389801     6.40175641    -5.79754581    -0.23441067     0.39546912    -0.61601409
Li     -7.81189136     6.40744333   -10.13356414    -0.08352933     0.36902890     0.74744763
Li     -8.00582423     6.84796219    -5.92198488     1.37781810    -0.10490703    -0.02155705
Ti     -1.91850784     2.32076208    -4.17589613    -0.23374376    -0.45029614     1.02978978
Ti     -5.82239940     6.68970216    -7.90286612     0.72270515     0.05511110    -0.29061416
Ti     -7.76575843     4.42925077    -7.59758265     0.59259421     1.02511137     0.22173024
Ti     -7.94159530     4.38022877    -3.84056173    -0.48417909     0.11639036     0.29185637
Ti     -3.89421733     4.36213996    -7.65653909     0.62820191     0.12384329    -1.59287063
Ti     -3.97022175     4.31999607    -3.62619050    -1.33436926     0.83392961     0.49299730
Ti     -2.11906064     0.03602137    -2.16404113    -0.55695942    -1.74243824     0.50742315
Ni     -5.85185198     2.19544558    -7.94133245    -0.26923605    -0.15493013     0.20390333
Ni     -5.89196099     2.38504078    -4.14457581     0.51687416    -1.44934864     0.18176077
Ni     -9.81965576     6.41136103    -8.04528063     0.67818428     0.45431213    -0.42059428
Ni     -9.76990498     6.51150529    -4.09190082     0.01750740     0.39411259     1.90604025
Ni     -1.93481659     1.99620544    -8.01921402     0.12534949     0.53721212    -0.31565136
Ni     -5.88198544     6.60578447    -3.87378112     0.20381754    -0.27499644    -1.03321389
Ni     -1.96765951     0.07200721    -5.93450362     0.44180970    -0.28256442    -0.15966204
Mo     -9.87228235     8.74736202   -10.33177266    -0.84543955    -1.90019511     0.81039595
Mo     -6.02357685     0.07714331    -6.30212776     2.03376474    -0.02110830    -2.02015043
O      -1.94628574     1.87542392    -1.99085643    -0.43978409     0.81573756     0.11088806
O      -1.86430187     1.98500875    -5.98469745    -0.28075375    -0.62745463    -0.76690900
O      -5.81600610     6.78947010    -1.92061281     0.27285257     0.45484382    -1.10720305
O      -5.86323721     6.92713974    -5.92186449    -0.31332103     0.83860529     0.66372446
O      -5.84584263     1.88359406    -9.80661897     0.06514822    -0.62643115     0.03389136
O      -5.90633328     2.02743860    -6.08697532    -0.13628532    -0.06288176     0.18466770
O      -9.72556429     6.70195046   -10.10408724    -0.32331220     1.09661381    -0.38363322
O      -9.79255014     6.77686889    -5.93300098    -0.74053001     0.95368122    -0.17134951
O      -3.92477732     2.44485762    -4.08063948     0.95959151    -0.34282294     0.22927131
O      -4.01764518     2.41935908    -7.94820711    -0.01717419    -0.81771004     0.41275125
O      -7.73104856     2.36441118    -4.02210518    -0.27196492     0.43095057     0.49695932
O      -7.79467861     2.54900807    -7.99018499    -0.20822264    -0.90306687    -0.25114811
O      -3.88850347     6.21242890    -3.95755553    -0.57351761     0.95028683     0.73198787
O      -3.86218705     6.45053419    -7.92738819     0.44866141    -0.80915868    -0.33678292
O      -7.85246040     6.37566143    -4.08641657     0.21775927    -0.71713574     0.37726365
O      -7.68435649     6.30145461    -7.99816134    -2.03700996     0.84206565     0.38089891
O      -4.15114293     4.29448096    -1.87203401     0.58458851     0.24516763    -0.72788534
O      -3.72365224     4.51174654    -5.95918358     0.16552740    -0.61064119     0.97795750
O      -7.96068581     4.53181725   -10.01596120     0.47882497    -0.89862000    -0.86519061
O      -7.67558046     4.36942110    -5.86600432    -0.60628847    -0.05105548    -0.76908843
O      -7.89497978     8.54311224    -2.23177823    -0.24193634     0.92900621     0.69595578
O      -4.16047654     0.10450376    -5.92413860    -0.49943533    -0.22410325    -0.59038295
O      -7.80753340     0.17172293    -5.99797394     0.75309586    -0.76830140    -0.34758448
O     -11.62181981     8.55533184    -9.96333979     0.57859339     0.69019915    -0.61609065
O      -1.97750188     4.33904549    -3.79043655     0.75748056    -0.31093417    -0.46634485
O      -1.95548644     3.80409163    -0.28516390    -0.05502866     0.71639849     1.17832622
O      -5.88999453     4.16343283    -4.06254593    -0.08131717     1.10245671     0.27079888
O      -5.80637052     4.70999307    -7.73828964    -0.13353390    -0.27711275    -0.56189546
O      -1.98989037     0.35278517    -4.00255187     0.57551609     0.38423976    -0.94682866
O      -5.86399822     8.66165045    -8.02684589    -0.22749365     0.48301395     0.64670752
O      -5.89823270     0.38729521    -4.08318437    -0.44311160     0.66792974    -0.32781623
O      -9.82489698     8.31362557    -8.14667086     0.09484633    -0.81354900     1.90280282
