# total energy = -630.56803987 eV

CRYSTAL
PRIMVEC
        0.00279571     0.02951795    -7.98606283
       -7.83802570     0.01298533    -3.99532603
       -3.92160916     8.71933433     0.00634407
PRIMCOORD
56 1
Li     -3.97288666     2.37668193    -1.88415596    -0.20272315     0.19158773    -0.12994064
Li     -3.96899563     2.37722079    -6.01083005     0.22821916    -0.53055246     0.04703934
Li     -7.74928219     2.30544602   -10.00934556    -0.12591229     0.07912129     0.21135407
Li     -7.75046426     2.03071870    -5.95620529    -0.68056546     0.36562267     0.11906133
Li     -3.87969919     6.24336354    -2.08749571    -0.16529425     0.43490699     0.51328208
Li     -3.93168027     6.77151829    -5.78264092    -0.17467043    -0.56387026    -0.34764812
Li     -7.86009137     6.29743755    -9.93615014     0.21865722     0.35057168     0.27670261
Li     -7.81803311     6.58061894    -5.95888582     0.09515960     0.08232951     0.00079718
Ti     -1.98929435     2.17373984    -3.99684609     0.84741458    -0.31285968    -0.12925278
Ti     -5.77350208     6.67269091    -8.01332966    -1.15999454    -0.46097104     0.22301002
Ti     -7.74555537     4.34901646    -7.72027714     0.17135230     0.77338710    -1.74428140
Ti     -7.83840861     4.43128736    -3.76557449     0.46250111    -0.77814410    -1.23487476
Ti     -3.86828683     4.51204943    -7.66445688     0.55184303    -0.34803100    -2.90924512
Ti     -4.05083552     4.33628779    -3.81584275    -0.68649131     1.12197026     1.48269732
Ti     -2.24475437     0.03571116    -1.96711665     1.87628724    -0.14632213    -0.17989074
Ni     -5.82169520     2.16507011    -7.86677295    -0.01686177     0.38141976     0.30574534
Ni     -5.95860479     2.13766967    -4.11350716     0.21798795     0.36608959     0.86598698
Ni     -9.78498017     6.24949379    -7.86755424     0.02217155     1.01022190    -1.25489243
Ni     -9.75651451     6.64280200    -4.05462966     0.62349881    -0.51087431     0.65890311
Ni     -1.93339332     2.33100792    -7.90980189    -0.02163716    -0.20506341    -0.70679502
Ni     -5.89039028     6.66737467    -4.00834075     0.64736103     0.29829847     0.01435887
Ni     -1.96779365     0.07502590    -6.04436170    -0.57290261     1.07123086     0.22045455
Mo     -9.91143298     8.68820104   -10.17024985     0.36561606     1.49035790    -1.19866608
Mo     -9.84823561     8.69516029    -6.42564767     0.27982876     1.09675948     1.84191581
O      -2.06870261     1.91990994    -2.10616316     0.19472562     1.08363033     0.88022235
O      -1.90001494     1.93450406    -6.10003104    -0.55305188     0.08213555     0.63998795
O      -5.82553256     6.84988047    -1.94709684    -0.18718291    -0.22898742    -1.19686936
O      -5.91163139     6.98555968    -5.95179170     0.60544476    -0.41556085     0.01161683
O      -5.86156550     1.86763292    -9.64065589     0.49507436    -1.18728467    -1.25778288
O      -5.83962658     1.89855545    -6.00486369    -0.25175752     0.35537625    -0.73508209
O      -9.74799051     6.77741819   -10.06006906    -0.58852481     0.21518571    -0.71055924
O      -9.76961832     6.77762132    -5.87354159    -0.58611438    -0.10539281    -0.83906538
O      -3.94989885     2.45693757    -4.04810512     0.30539044    -1.27442802    -0.31291644
O      -3.85478961     2.60479983    -7.99741724    -0.42068232    -0.72161058     1.15957305
O      -7.89078016     2.38426816    -4.05017209     0.11494474     0.20824509    -0.02657926
O      -7.85340630     2.36277206    -7.91593952     0.43130960     0.85997505    -0.12583901
O      -4.01221262     6.30410860    -4.01319044     0.74694548    -0.13804399     0.90779865
O      -3.85130786     6.45816694    -8.04426009    -0.35092590     0.28308181     0.35835460
O      -7.68681512     6.36959838    -4.00220833    -1.26680530     0.04060754     0.40751958
O      -7.79367643     6.41018765    -7.94497815    -0.35339505    -1.17714408    -0.26371797
O      -4.02936076     4.33185445    -2.00196874     0.17700730     0.45263395    -1.67216457
O      -4.02265581     4.67325573    -5.97475894     0.06167307    -0.81357081     1.38052451
O      -7.68473097     4.29593656   -10.02693643    -0.61438616     0.36506326     1.24089650
O      -7.80002123     4.46892170    -6.03190213     0.15968250    -0.20526515     1.41696524
O      -7.91455158     8.67375622    -9.95476276    -1.20929483     0.40535451    -0.33836137
O      -8.00067130     8.72811688    -6.07808021    -0.66244539     0.31546456    -0.33868645
O      -7.78771395     0.15458592    -6.16500190     2.15181877    -0.87614550    -0.04165314
O      -7.73798119     0.17039818    -9.96048028     0.06271333    -1.04014377    -0.37492939
O      -1.97542624     4.34591281    -4.02648462     0.08013362    -0.54462066    -0.04665185
O      -9.70086867     4.54466635    -4.12371368    -1.89688935     0.08750378     0.71990488
O      -5.97782689     4.04702889    -4.11771830     1.36621496    -0.49294100    -0.19646270
O      -5.86427682     4.70411889    -8.13235173     1.00593124     0.10648500     1.04830299
O      -1.84794584     0.32620210    -4.03409446    -0.96467606    -0.29229104    -0.31110267
O      -5.84403858     8.62380027    -8.04259790     0.01783021    -0.10235287     0.21948831
O      -5.84914212     0.07193221    -4.10265640    -0.41329520     0.20790927     1.98525864
O      -9.72617656     8.15903115    -8.13583115    -0.49648743    -1.01315609    -0.54182051
