# total energy = -630.88017563 eV

CRYSTAL
PRIMVEC
        0.00279571     0.02951795    -7.98606283
       -7.83802570     0.01298533    -3.99532603
       -3.92160916     8.71933433     0.00634407
PRIMCOORD
56 1
Li     -3.79346866     2.36433070    -1.90743682    -0.17233914    -0.09127839    -0.22150797
Li     -4.00932283     2.03310158    -6.12230209     0.37564883     0.40746262     0.73974373
Li     -7.74926481     2.41520907    -9.93973514    -0.27247665    -0.36069989    -0.20032300
Li     -7.78070684     2.38341378    -6.03275354     0.01971366    -0.23187107     0.50454526
Li     -3.88753908     6.37692374    -1.81184038    -0.16978919    -0.18871828    -0.82417099
Li     -3.98043332     6.84360408    -5.71125799     0.79510200     0.09966279    -0.81859864
Li     -7.92214552     6.39557118    -9.98650239    -0.24397188     0.33591981    -0.00580445
Li     -7.85827111     6.25330178    -5.80211188     0.07292242     0.09490040    -0.59873332
Ti     -2.02045259     2.04159509    -4.17370120    -0.59420236     0.13863613     0.81232723
Ti     -5.97580608     6.45377505    -8.03046015     1.99881129     0.12743758     0.66024916
Ti     -8.01618153     4.27957968    -7.84180371     0.14348878     0.09364190     1.62013089
Ti     -7.93346377     4.35584121    -3.76404950    -0.18757644     2.55264177     0.05590193
Ti     -3.86477736     4.27498574    -7.67918486     0.04886946     2.96228249     1.32898402
Ti     -4.09172263     4.40968658    -3.81692232     0.07078207     0.48968820     0.22200704
Ti     -5.67739360     8.71163900    -1.85457317     0.27706846     0.50821122     0.47910630
Ni     -5.80511718     2.39958370    -8.01621140    -1.10521157     0.71813869    -0.03998317
Ni     -5.88072184     2.12652302    -3.90013289     0.07809882    -0.05139155    -1.47454697
Ni     -9.79413151     6.56136604    -7.93159108    -0.28695495    -0.12511523     0.03730173
Ni     -9.94305728     6.59804850    -4.02688030     1.05986798    -0.49809015     0.52914715
Ni     -1.91944102     2.20680861    -8.00547867     0.24494867    -0.27763280    -0.17388114
Ni     -5.97474439     6.71223875    -3.96411509    -0.15513485    -0.29922476    -0.85708245
Ni     -5.88818326     8.72497399    -5.98792372     0.96550327    -0.46310077    -0.74746478
Mo     -5.80311823     0.17613646   -10.27559098    -1.24479073    -0.95973369    -0.57079338
Mo     -9.73300566     8.66523518    -6.38970335     0.39230963    -0.70503286     1.47270541
O      -1.86299456     1.91957134    -2.04913503    -0.60057913    -0.58221439     0.89736382
O      -1.88830071     1.88771235    -6.12179820    -0.62553457    -0.37098284     0.66486242
O      -5.91830205     6.73882171    -2.00944424    -0.13995336     0.66769899     0.26278928
O      -5.75574498     6.89467990    -5.96219748    -1.74389094     0.13068803     1.09013526
O      -5.88085606     2.17214644   -10.04605562     0.65854936    -0.86003730     0.23385851
O      -5.86084962     1.85068652    -5.82063417    -0.37763287     0.06440956    -0.19195504
O      -9.88132167     6.97422091    -9.78270944     0.83292847    -0.03905014    -0.18667962
O      -9.82588710     6.71105288    -6.04305649     0.21243386     1.05403460    -0.09535410
O      -3.92183312     2.34904190    -4.00227806    -0.28327876    -0.29629168     0.31263243
O      -3.84667349     2.44491177    -7.90869709     0.04247964    -1.90265882    -1.56236381
O      -7.86248407     2.55439544    -3.93400776     0.53240193    -2.41051072    -0.61727413
O      -7.92303549     2.31676544    -8.00662320     0.78957342     0.73169164    -0.12104457
O      -3.82155552     6.38239185    -3.94866268    -0.02298568    -0.63450895     0.49306219
O      -4.02479205     6.32559686    -7.92251313     0.31728474    -0.60624951    -0.12070408
O      -8.02925661     6.42513618    -3.98351915     0.43469099    -0.17264478     0.37388971
O      -7.81480764     6.27312132    -7.93484504    -1.51739356     0.33234435    -0.10697335
O      -3.96565069     4.29193840    -2.03000092     0.08710183    -0.01562457    -0.79707977
O      -3.81946915     4.08057704    -5.91980377    -0.28662949     0.59209780    -0.16138711
O      -7.82498074     4.41557426    -9.94198653     0.12565545     0.11931651    -0.17615780
O      -7.96093283     4.32374399    -6.01463547     0.53402614     0.10184595    -1.09938963
O      -4.02649551     0.06055246    -9.86530316    -0.30157340     0.48291118    -0.28980540
O      -7.96193951     8.67466621    -6.35905379     0.02420445    -0.01321535     0.88649223
O     -11.67486471     8.69480264    -5.89585095    -0.58344598    -0.26697001    -0.63753994
O      -7.68507915     0.08860464   -10.10835100     0.75880979     0.61684422     0.37482692
O      -2.00167354     4.12662246    -4.04304096    -0.61966282    -0.76680866    -0.25895677
O      -9.83823972     4.70870253    -4.01037762    -0.02048236    -0.06890428     0.10360646
O      -5.98489101     4.85148177    -4.13455985     0.27928095    -0.12496626     0.42900341
O      -5.84706988     4.40436180    -7.91654710    -0.27750208    -0.50812735    -0.20400452
O      -2.11191415     0.04919390    -3.96627422     0.36663924     0.43000019    -0.18630317
O      -5.78611944     8.35919454    -7.89255522    -0.51822244     0.51584931    -1.72008528
O      -9.75946174     8.49709071    -4.14189281     0.17358718    -0.10387270     0.86473923
O      -5.93539518     0.58469208    -8.07925760    -0.37161543     0.27407344    -0.67984248
