# total energy = -630.21769225 eV

CRYSTAL
PRIMVEC
        0.00285542     0.02004370    -7.95977623
       -7.82940539     0.00763210    -3.98158109
       -3.91729101     8.74642787     0.01461334
PRIMCOORD
56 1
Li     -3.86047491     2.53326028    -1.81448356    -0.01231133    -0.38369828    -0.00237208
Li     -4.02031453     2.16234036    -5.85415509    -0.07527074    -0.14991425    -0.63090632
Li     -7.81794719     2.37151019    -9.96078443    -0.06150288    -0.00355971    -0.03950045
Li     -7.91446061     2.17678159    -5.79378200     0.27748179    -0.32809377    -0.24991701
Li     -3.89797140     6.44938402    -1.93737833     0.08014785     0.02221598    -0.03327452
Li     -3.87937586     6.45571966    -5.80125690    -0.05889734     0.13334401    -0.23046034
Li     -7.91101328     6.50981661    -9.69925917     0.04905092     0.14050182    -1.30782958
Li     -7.73791325     6.59782713    -5.85160945    -0.32327302    -0.01442806     0.26836248
Ti     -1.95731752     2.23004771    -4.03338970     0.22577196    -0.12016677    -0.24108370
Ti     -5.90529464     6.62677784    -7.96225573     2.59150241     0.40207809    -0.48114197
Ti     -7.80629152     4.37210435    -7.61820117     0.07409521    -0.60896656    -1.83369360
Ti     -7.73688001     4.33404062    -3.72333024    -1.61593033     1.08692961     0.91144458
Ti     -3.83740656     4.42993134    -7.61055436     0.93061927    -0.51432164    -0.70785346
Ti     -4.04861045     4.35412072    -3.72462335     2.17658452     0.95654192     1.45995631
Ti     -6.06259480     8.73871935    -2.23793309    -1.27757232    -1.11049487     1.15008719
Ni     -5.82456966     2.44452485    -7.95751067     0.21922823    -1.71659143    -0.39506394
Ni     -5.87749330     2.13200887    -3.96008704    -0.40798272    -0.12198032     0.01345133
Ni     -9.75558618     6.51853311    -7.81040177     0.50220158     0.29055269    -0.54208574
Ni     -9.70444027     6.50530251    -4.04628791    -0.15161337    -0.05972955    -0.06000279
Ni     -1.95105541     2.20146194    -7.83413142    -0.66497660    -0.36563852    -0.55747644
Ni     -5.84952516     6.41766122    -3.98765449     0.40380456     1.10992233     0.69224474
Ni     -5.97468949     8.68233267    -6.02023134     0.15862936     0.91023072     0.62781854
Mo     -6.12691046     0.12641711   -10.30879634     1.63512007    -0.60048840     0.51243973
Mo     -9.82600280     8.70493431    -6.35888430    -0.14863855     0.26875164    -0.88951886
O      -2.02947245     1.90602331    -1.88562006     0.74955115    -0.14446720    -0.63691513
O      -2.06296794     1.84686171    -5.92115576     0.26028116    -0.07051945    -0.90624116
O      -5.81177103     6.77805110    -2.04759092    -0.31407607     0.22469824     0.30198663
O      -5.90499633     6.83952941    -5.93002390     0.69957533     0.29864439     0.24078481
O      -5.72344180     1.98001737    -9.97644093    -1.02232680     0.22682431    -1.45047901
O      -5.97918140     1.92530628    -5.85732016     0.49055137     0.12002720    -0.02790332
O      -9.79858052     7.02128146    -9.79192772    -0.39846731     0.05510730     0.19696896
O      -9.64757250     6.79478018    -5.95108567    -0.82698574    -0.26522923    -0.32760436
O      -3.98621529     2.46145618    -3.99432925     0.85429719    -1.25992672     0.36698521
O      -3.91391304     2.37709045    -7.86373507     0.73975316     1.84154985     0.33667900
O      -7.86901911     2.38854475    -3.95658724     0.31250164     0.26015661     0.58650611
O      -7.76494837     2.46667786    -8.13722887    -0.39932955     0.24956178     1.89682833
O      -3.73746044     6.29678368    -3.92581441    -0.82105024     0.32617099     0.18194590
O      -3.98072608     6.41698101    -7.95732741     0.92195399    -1.24239154     0.87499897
O      -7.72234696     6.35712732    -3.85238652    -0.91149600    -0.25594581    -0.63680836
O      -7.70898898     6.35573462    -7.83114380    -2.71651627    -0.44561758    -0.60008442
O      -3.90833874     4.47444515    -1.92846567     0.12541273    -0.58668130    -0.95918093
O      -3.84499843     4.47085392    -5.82577778     0.32997563     0.01413400    -1.17863667
O      -7.81518575     4.46156857    -9.88700634    -0.22481771    -0.13443046    -0.85714514
O      -7.69553806     4.59525554    -5.92265750     0.07438011    -0.79208294     1.02402935
O      -7.86818968     8.64519184    -2.24397049     0.58898625     0.51420606     0.22196201
O      -8.01255932     8.73166034    -6.14743021     0.93488203     0.17068958     0.86476006
O     -11.59366621     8.64702914    -5.97766006    -0.20134524     0.22515126    -0.74683897
O      -7.86558307     0.15818069   -10.03506555     0.94109666    -0.02936072    -0.37224685
O      -1.92940359     4.07348263    -3.90406101     0.44453939     0.50943334     0.09553408
O      -9.70914453     4.62254837    -4.25549384    -0.18503546     0.14836431     1.69949854
O      -5.83818720     4.52348935    -3.90128087    -1.83160144    -0.41877303    -0.67668232
O      -5.73777164     4.33464814    -7.97587203    -1.26964422     0.27934696     0.51210750
O      -1.70739182     0.23535082    -4.04973098    -0.86295734    -0.04690934    -0.21124945
O      -5.85646253     8.41359345    -7.97404918    -0.38520922     1.12131953     0.00767532
O      -9.88174122     8.49378433    -4.15309231     0.34588628    -0.35165836     1.98177904
O      -5.76531389     0.54915083    -8.16510453    -0.93518252     0.03357769     0.71620247
