# total energy = -630.35955758 eV

CRYSTAL
PRIMVEC
        0.00279571     0.02951795    -7.98606283
       -7.83802570     0.01298533    -3.99532603
       -3.92160916     8.71933433     0.00634407
PRIMCOORD
56 1
Li     -3.95035498     2.31432880    -1.93669634    -0.29559227    -0.10220094     0.22265537
Li     -3.80245687     2.45221933    -5.94494099    -0.16603080    -0.03136393     0.01881042
Li     -7.69625308     2.36426362    -9.90966963    -0.04614142     0.06229913    -0.07196414
Li     -7.87864228     2.48602179    -5.91337308    -0.02511396    -0.05437068     0.14409705
Li     -3.80483107     6.47097406    -2.03777565    -0.36625475     0.20271014     0.31498085
Li     -3.95232982     6.46516152    -5.78029516     0.12652977     0.06257221    -0.86443543
Li     -7.76634487     6.49197054   -10.04474349    -0.41498352    -0.01172358    -0.03714647
Li     -7.86704918     6.60565079    -5.82204956     0.35919265    -0.17823050    -0.36772285
Ti     -1.90611300     2.19549953    -4.01342659     0.52019956     0.36696080    -0.67961482
Ti     -5.85915156     6.76156515    -8.09048184     0.56271364    -0.85733548     0.41139894
Ti     -7.89247092     4.53960972    -7.66037534     1.29517467    -1.16657975    -0.52217562
Ti     -7.99960101     4.28930174    -3.72672260     0.69502150     1.84320492     0.22522597
Ti     -4.00528850     4.28943855    -7.78020587    -0.01757531     1.53273021     1.07446385
Ti     -4.16577316     4.37366787    -3.72852408    -0.49263984     0.84999389     0.70205877
Ti     -1.75143228     0.14954644    -1.98439008     0.55529263    -2.05388843    -0.00361564
Ni     -5.89783619     2.16957699    -7.92937598    -0.56495958    -0.42367546     0.26441385
Ni     -5.82579234     2.22422966    -4.19194879    -1.19344476     1.53026611     2.07246134
Ni     -9.76861497     6.24969719    -8.02298281    -0.79775459     0.54970598    -0.51268824
Ni     -9.87336243     6.71234590    -3.95984887     0.75289762    -0.91953068    -0.84075247
Ni     -1.92461126     2.12727732    -7.97227144    -0.18411476    -0.92386865     0.72243173
Ni     -5.91953807     6.62867563    -4.11690101    -0.61836188     0.38903226     0.94086154
Ni     -1.92839019     0.13685558    -5.94703942     0.42785016    -0.03444418    -0.04015377
Mo     -9.85054717     8.60200953   -10.30182495     0.81924684     0.36042687     0.77291710
Mo     -5.75338359     0.04023201    -6.33959462    -0.84599324     0.86750943    -0.14248177
O      -2.02867485     1.96683987    -1.91002358     0.08375333     1.28036935    -0.46346318
O      -1.92006656     2.07137318    -5.97964330     0.24493402    -1.22790544     0.32061433
O      -5.87288257     6.92725926    -2.07377925    -0.42583363    -0.76222696     0.36283675
O      -5.94445530     7.01330250    -5.98692393     0.06433859     0.01569030     0.86232542
O      -5.83671056     1.83418742    -9.76708848    -0.23255435    -0.50467324    -0.21952596
O      -6.03988812     2.01126882    -6.03550115     0.91983098    -0.92388193    -1.11043656
O      -9.78855388     6.60323824   -10.18023705    -0.78546518     0.83695950     1.41194265
O      -9.68285429     6.97569035    -5.79638625    -1.64786831    -0.93268514     0.31124792
O      -3.83141392     2.51232514    -3.96292367    -0.45480974    -1.17086086    -0.30228556
O      -4.06855509     2.38878399    -7.88073044     0.18982717    -0.16866210    -0.10063209
O      -7.78055898     2.41632700    -3.96314551     0.20000787    -1.47035374    -0.50506464
O      -7.81282365     2.46427276    -7.92232847     0.00101136     0.56022157     0.20073935
O      -4.03181423     6.32870163    -3.94310131     0.54750833    -1.17398241     0.13381766
O      -3.99912944     6.43833886    -8.00468748     1.40703261    -0.11016722     0.03967115
O      -7.96359858     6.26981321    -4.00414019     0.80199964     0.71908443     0.44450787
O      -7.81794572     6.40544010    -7.91346791    -1.02714237     0.82239546    -0.62592518
O      -4.06444319     4.36268038    -1.88191973     0.70982747     0.21770625    -1.57240759
O      -3.76919505     4.45991999    -5.94589080    -0.71779429    -0.33854449    -1.56093782
O      -7.85526748     4.42968803    -9.96127286     0.19165905     0.04287307     0.38728447
O      -8.03101873     4.61211728    -5.91729633     0.75206370    -0.94930902    -0.38736870
O      -8.01710099     8.51855261   -10.10224955    -0.59922691     0.77019839     0.27080813
O      -3.99520478     0.06475208    -6.04392776     0.05441638     0.94026166    -0.15513168
O     -11.71461772     8.68329175    -6.07463464     0.98242700     0.62423937     0.30424830
O      -3.83139600     8.53543716    -5.92327347     0.13860410     0.67263354    -0.32201084
O      -9.76190148     4.32839528    -7.99333811    -0.92261187     0.29450964     0.15412162
O      -1.95108479     3.92570032    -8.08078598    -1.93445816     0.59610081     0.21806367
O      -6.00377417     4.10434263    -4.10784426     1.36495013     0.12786531    -0.11375290
O      -5.89857295     4.84096791    -8.00166868     0.12500272    -0.94350786     0.57589970
O      -1.80940546     0.34714735    -3.89301820    -0.99015304     0.29542771    -1.23179490
O      -5.80417564     8.72716703    -7.97672300    -0.41212796     0.51047065    -0.40352589
O      -5.98419353     0.43289792    -4.08224175     0.35622523    -0.83169126    -0.58378736
O      -9.94969128     8.06492880    -8.02062699     1.02774246     0.57363897    -0.14311768
