# total energy = -631.26315180 eV

CRYSTAL
PRIMVEC
        0.00279571     0.02951795    -7.98606283
       -7.83802570     0.01298533    -3.99532603
       -3.92160916     8.71933433     0.00634407
PRIMCOORD
56 1
Li     -3.99091149     2.43698724    -2.06721159    -0.01017084    -0.47048832     0.66276457
Li     -4.00349071     2.40876916    -5.92400345     0.07032311    -0.12198377    -0.42620065
Li     -8.02733304     2.24222273   -10.04610023     0.72560703     0.44996838     0.00373862
Li     -7.80765473     2.35241599    -5.98967723    -0.26216790    -0.41322229     0.60127393
Li     -3.95663541     6.52252886    -1.96101750     0.24527381    -0.12119610    -0.30958674
Li     -3.94504172     6.45131055    -5.84718555     0.24589409    -0.00690426    -0.49695251
Li     -8.01383342     6.38945758    -9.80356031     0.62046987     0.01760422    -0.56504591
Li     -7.81841043     6.47525982    -5.86380120    -0.12705665     0.10114641    -0.06000450
Ti     -1.92368625     2.01085695    -3.97984243    -0.44855179     0.30554175    -1.02827654
Ti     -5.83698162     6.47200491    -7.99776405    -0.07073608     0.03240225    -0.17375511
Ti     -7.90597745     4.32856685    -7.67651238    -0.18029413     0.60451620    -0.89440886
Ti     -7.75372970     4.41292337    -3.76904320    -0.34797696    -0.38825465     1.29628133
Ti     -3.62223060     4.48315200    -7.80755978    -0.22243713    -0.57523459     0.15658945
Ti     -3.98914752     4.29434052    -3.78204153     0.50282082     0.42703352     0.59398302
Ti     -6.05446437     8.72335471    -1.89700754    -0.54751769    -1.06051415     0.16019129
Ni     -5.76597266     2.45768149    -7.99688675    -0.74596078     0.37277692    -0.54651516
Ni     -5.95528021     2.11287133    -4.08585174    -0.71492364    -0.05733707     0.19123835
Ni     -9.81133076     6.53707132    -7.87682275    -0.25786420     0.12713622    -0.49243165
Ni     -9.73129856     6.63153030    -4.01851868     0.17156911     0.41160635     0.42338252
Ni     -2.06129032     2.09302086    -8.03151665     0.83719627    -0.11969086     0.49100402
Ni     -5.80813685     6.59808730    -4.07955367    -0.82378374     0.26854335     1.34500140
Ni     -6.00267550     8.68703604    -6.00167086    -0.04183050    -0.03208657    -0.15406153
Mo     -6.01284353     0.08045573   -10.24329364     1.64903872    -0.25163859     0.61347669
Mo     -9.81736318     8.69774703    -6.33953412    -0.32259613     0.38560448    -0.74627459
O      -2.00073557     1.92402231    -2.04618171     0.50655530     0.30098814     0.41553681
O      -1.99778047     1.82572328    -6.06399149    -1.00314435    -0.39595118     0.18284912
O      -5.89669700     6.74152532    -1.97758092     0.25333614     0.43285089     0.54050227
O      -5.93766087     6.84361411    -5.99155120     0.34745336     0.24815274    -0.21198652
O      -5.94981977     2.00944144   -10.23279693     0.58213663    -0.11640134     1.14142005
O      -5.98717971     2.02475291    -5.90475281     1.30252908    -0.60185235    -0.25804533
O      -9.81537488     6.88885534    -9.81168288     0.34189971     0.38166721     0.50463695
O      -9.80786368     6.79221589    -6.01219335    -0.08267946    -0.33602453    -0.00436466
O      -3.94505652     2.36430823    -3.98859496    -0.40070728    -0.17623623    -0.41861068
O      -3.84267137     2.55781224    -8.07841843    -0.94681811     0.04279085     0.43286115
O      -8.07144730     2.40929296    -3.93332327     1.34149783     0.41529238    -0.92557697
O      -7.87561954     2.41896763    -8.09786769     0.81202058    -0.55117718     0.91087451
O      -3.83668097     6.18900438    -4.02566139     0.37338450     1.81974577     0.55127153
O      -3.89668096     6.47143378    -7.96790418    -0.49267849    -0.52455426    -0.00284997
O      -7.78939869     6.50619335    -3.89044156    -0.35158810    -1.11788134    -0.39182621
O      -7.88440089     6.29784025    -7.87593916     0.16386344    -0.31787953    -0.33528965
O      -3.90088053     4.41011171    -2.00267923    -0.40183999    -0.10104424    -0.25109543
O      -3.89918752     4.44523301    -6.05087957     0.37247064    -0.30322510    -0.10502362
O      -7.83315621     4.28734171    -9.97245857     0.02561586     0.67617848    -0.54823440
O      -7.63511699     4.30620971    -5.94607691    -0.59309649    -0.12555356    -0.08933719
O      -3.92147183     0.07666594    -9.96164542    -1.22029011     0.01126455    -0.01154091
O      -8.02630540     8.67369744    -6.08649294     0.22773445     0.37300914     0.37723160
O     -11.61306686     8.73084922    -5.94078063    -0.20618625    -0.23128982    -0.55149949
O     -11.62646407     8.69449420    -9.99290376    -1.68532501     0.18460071     0.21589003
O      -1.97606656     3.99021543    -3.91460366    -0.03101976     0.39485081    -0.22946443
O      -9.62131503     4.79353470    -4.15732943    -1.10560547    -0.13366634     0.30542095
O      -5.88683300     4.72909001    -4.02474007     0.65926525    -0.39678942    -0.24823751
O      -5.83440950     4.44252200    -7.95798716     0.01972996     0.65478715    -0.46371793
O      -2.02611861     0.04912555    -3.98435832     0.66758266     0.27616688    -0.33117801
O      -5.95393444     8.52675115    -7.98556553     0.29888038    -1.13331490     0.14430550
O      -9.81703177     8.60287886    -4.04028414     0.31314282    -0.29123178    -0.41426191
O      -5.83124975     0.59863210    -8.08623206    -0.12920089     0.60037945    -0.52616196
