# total energy = -630.45059755 eV

CRYSTAL
PRIMVEC
        0.00279571     0.02951795    -7.98606283
       -7.83802570     0.01298533    -3.99532603
       -3.92160916     8.71933433     0.00634407
PRIMCOORD
56 1
Li     -4.10338462     2.19094341    -1.71731152     0.41957359    -0.32097472    -0.22030152
Li     -3.84208532     2.23191391    -5.94848432    -0.30761465     0.18201381    -0.05277063
Li     -7.75507384     2.29042634   -10.11900441    -0.15679574     0.32709695     0.60725896
Li     -7.91877879     2.31270138    -6.04995594     0.17118495    -0.33009644     0.87839700
Li     -3.81260466     6.89996406    -2.03359292    -0.23044412    -0.26927951     0.06486057
Li     -3.90630908     6.25127389    -5.74923075    -0.19492626    -0.03439279    -0.48294987
Li     -8.10623592     6.27450187    -9.93025934     0.95524645     0.16236097     0.10113573
Li     -7.81168565     6.57833144    -5.96304896    -0.21246549     0.15300256     0.20164822
Ti     -2.01946517     2.27375361    -3.99908216     0.55028294    -1.52707303    -0.81169452
Ti     -5.74895120     6.60806039    -8.06422955    -1.08674189     0.30388895    -0.37816943
Ti     -7.82948908     4.34215998    -7.69219304     1.24998909     2.23965522    -0.51662837
Ti     -7.78238123     4.39445966    -3.82854417    -0.29376711    -0.81473336     0.78801739
Ti     -3.73207488     4.40099147    -7.77706372    -0.20028773    -0.81395919     0.70271794
Ti     -3.99726681     4.33737973    -3.57253289    -0.81943045     1.06329379     0.73748390
Ti     -2.16683082     0.03700297    -2.04482678    -1.19917542    -0.73389136    -0.02949416
Ni     -5.83068534     2.22689287    -7.88741183     0.10937154     0.08105453    -1.18103650
Ni     -5.84992451     2.28502895    -4.08808098    -0.35251572     0.00445867     0.11914531
Ni     -9.83316504     6.33666334    -7.95371142    -0.49186863     1.33606665     0.06956043
Ni     -9.80586058     6.75712048    -4.02202417     0.39955685    -0.48057086    -1.00955671
Ni     -1.94118726     2.12466143    -8.00110867     0.11998072    -0.18937374     0.45875467
Ni     -5.83111033     6.60168968    -4.07864377    -0.76304006     0.01293236     1.36926326
Ni     -1.89145029     0.08030595    -5.88761558    -0.69815040     0.37797301    -0.83942426
Mo     -9.99218828     8.63895621   -10.29188170     0.32128118     1.34946438     2.49588045
Mo     -5.86199260     0.17254833    -6.46373616     0.43069826    -0.46882576    -0.24570495
O      -2.15343976     1.94406712    -1.91203687     1.33355716    -0.11983523    -1.04706905
O      -1.89125369     2.03835326    -5.91797019    -0.04797324    -1.20223211    -0.07726305
O      -5.83031991     6.79499560    -2.07541568     0.10512298     0.28280123     0.86662938
O      -5.75565841     6.94341767    -5.90586216    -0.79776640     0.12760253    -0.34155649
O      -5.91823704     1.83936461    -9.68140444     0.30675773    -0.94324136    -1.32926756
O      -5.95464135     2.08163511    -6.13257772     0.38457211    -0.09795374     1.73292406
O      -9.89467416     6.73357470   -10.12670722    -0.00690413    -0.25303268    -0.00847044
O      -9.74909475     6.89652950    -5.97240678    -0.37840519    -0.19626723     1.17735766
O      -3.88986171     2.44464620    -4.01692530    -0.30729331    -0.80163827     0.06353415
O      -3.83998595     2.40407541    -7.78075354    -1.56999234    -0.69320255    -0.93145953
O      -7.71045501     2.42036672    -4.05253950    -0.61952642    -0.75583364    -0.11853721
O      -7.86586210     2.47531985    -8.04726456     0.01768050    -0.36433513     0.93528214
O      -3.96237745     6.27962662    -3.85611875     0.60787375    -0.53241310    -0.26862071
O      -3.87513615     6.34181483    -8.01420517     0.38432942     1.03717452    -0.30368485
O      -7.81939446     6.27807586    -3.89725269    -0.01398047     1.55401358    -1.12000763
O      -7.98430960     6.32437835    -7.92245936     1.00616475    -0.64537091    -0.44959280
O      -4.04317549     4.06085676    -1.81981172    -0.37567112     0.66574256    -0.83871895
O      -4.00342923     4.28759192    -6.00694440     0.50876302     0.68202229    -0.34417083
O      -7.76039634     4.36364891   -10.03596803    -0.89367287    -0.09050888     0.38889421
O      -7.96206294     4.34393478    -5.95110125     0.72393100     0.06121854    -0.40349670
O      -7.90690006     8.66606431    -9.97069989    -0.44323250     0.10761744    -0.75627568
O      -4.09831853     0.14045586    -5.97096675    -0.07029845     0.04941712    -0.12098275
O      -7.66735353     0.08766242    -6.16570815    -0.45348810     0.27081120     0.47912640
O     -11.73667131     8.73443010    -9.98407383     0.57475107     0.00293625    -0.48181643
O      -2.04247950     4.40230988    -3.80338255     0.52574813    -0.88855282    -0.82892385
O      -1.92087127     3.93908130    -0.18553569     0.31846666     0.46638833     0.95061726
O      -5.86840428     4.17225090    -4.00142719     0.29147979    -0.04235596    -0.41184392
O      -5.88004774     4.75869771    -7.98116884    -0.43944193    -0.41530896     0.33680272
O      -1.89617179     0.25613154    -4.02374232    -0.35294859     1.38555359     1.28996615
O      -5.93163443     8.59743492    -7.99600422     0.64572610     0.17133850    -0.25516195
O      -6.03591065     0.28729790    -4.03874774     0.79742645     0.99193711    -1.18713227
O      -9.83292548     8.24757386    -8.19640076     0.36490379    -0.86647913     0.75697914
