# total energy = -630.93853160 eV

CRYSTAL
PRIMVEC
        0.00279571     0.02951795    -7.98606283
       -7.83802570     0.01298533    -3.99532603
       -3.92160916     8.71933433     0.00634407
PRIMCOORD
56 1
Li     -4.07055265     2.22560406    -1.97470136     0.50887524    -0.12049151     0.13784382
Li     -4.04456674     2.44821188    -5.95526281     0.25793904    -0.14641580    -0.17100264
Li     -7.80533300     2.35093963    -9.94184250     0.29979420    -0.14160859    -0.10386505
Li     -7.94069665     2.50895612    -6.08689331     0.22386526    -0.51571250     1.05018835
Li     -3.91270700     6.61523765    -2.17548530     0.21502615     0.04970200     0.91913903
Li     -4.06672619     6.22022182    -5.91638148     0.28402935     0.39668836    -0.32138701
Li     -7.92951531     6.54969727    -9.97429892     0.38044672     0.00345124     0.11834889
Li     -7.81560597     6.22849434    -5.78300034    -0.11205210     0.71809168    -0.68853330
Ti     -1.99109562     2.20894546    -4.06935533    -0.71717551     0.47877066     0.19159094
Ti     -5.84868347     6.72445209    -7.89240258     0.72395644    -0.83355519    -0.53845342
Ti     -7.82151779     4.44290910    -7.74355796     0.58497135     1.49344501     0.30234402
Ti     -7.83942422     4.37087700    -3.69984663    -0.12209384    -0.40321609    -1.47285488
Ti     -3.80061000     4.34070132    -7.82070195    -0.71268598     0.16956048    -1.56833775
Ti     -4.11218604     4.34458375    -3.69864210    -0.11491978     0.37360510     0.20903583
Ti     -1.77389036     0.03677851    -2.06701814     0.44590557     0.97582187     0.18058498
Ni     -5.82494947     2.09757505    -7.98683095    -0.08791170    -0.19310431     0.67727503
Ni     -6.06556498     2.23997226    -4.05558990     0.82017848     0.49262044    -0.30337848
Ni     -9.98242289     6.30563842    -8.12499466     0.80539722     0.25580867     0.71183559
Ni     -9.79249676     6.51185965    -3.93947908    -0.31868479     0.50763554    -0.78682409
Ni     -1.97622232     2.10103129    -7.95340789    -0.24787143    -0.02153400    -0.68596364
Ni     -5.87889499     6.74723964    -3.90548880    -1.00989922    -0.04682542    -1.14957878
Ni     -1.73567763     0.10996269    -5.99301533    -2.41053565     0.50835577     0.45801196
Mo     -9.88708002     8.63154764   -10.28258008     0.39611654     0.88105283    -1.05575513
Mo     -5.67848142     0.08247122    -6.26061725    -0.25623422    -0.95900211    -0.80228069
O      -2.05589760     1.98136698    -1.96564365     0.02932298     0.04952885    -0.46007412
O      -1.87798853     1.99727066    -5.99561681    -0.16382555    -0.38866690    -0.22536787
O      -5.91052969     6.85529736    -2.04439667    -0.60807307    -0.52742471     0.53611905
O      -5.82006083     7.01789616    -5.84512477    -0.48336961    -0.45534906    -1.16745049
O      -5.88524250     1.90284815    -9.80027572    -0.68557604    -0.32395029    -0.59858673
O      -5.90851533     2.01352894    -6.09707019    -0.62593315    -0.26510022    -0.07585411
O      -9.89429541     6.68342521   -10.08680186    -0.42104477     0.27496742     0.26572488
O      -9.68709991     6.89144662    -5.77743589    -0.55420337     0.87758034    -0.15522311
O      -3.98532558     2.47454040    -4.02410899     0.32826110    -0.61763028     0.17043005
O      -3.94751574     2.33357656    -7.97670184    -0.08950851     0.76000593     0.04954274
O      -7.95553120     2.33305458    -4.00779455     0.44870786     0.92721051    -0.00160335
O      -7.89601709     2.58719900    -8.00622926     0.16328524    -1.93816937     0.26596693
O      -4.09334513     6.26884927    -4.09571693     0.98026804    -0.34218960     0.80703072
O      -3.88525242     6.47511960    -8.07753062    -0.58988541    -0.65489743     0.95774933
O      -7.89179694     6.31305864    -4.00419883     0.50362190     0.33611989     1.40928213
O      -8.01004755     6.32497800    -8.04187797     0.54138756     0.42877530     0.32433130
O      -4.11100659     4.43697154    -1.92245199     0.02814816    -0.25056911    -0.78353130
O      -4.02519027     4.37913374    -6.11186791     0.16755377    -0.14145293     1.45810553
O      -7.68951667     4.31478782    -9.96989924     0.03201821     0.37496167     1.22978656
O      -7.79347437     4.41522535    -5.95295387    -0.56519688    -0.47372642    -1.13278767
O      -8.11722290     8.70517458   -10.03295702    -0.04095533    -0.36329154    -0.00269506
O      -3.94509521     0.23344347    -6.07939623     0.08652410    -0.40608919    -0.43240954
O      -3.92807562     8.71741788    -2.08708952     1.01877002     0.15823510    -0.29267487
O      -7.80731138     0.12159089   -10.04409799     1.62253330    -0.41626395    -0.12774119
O      -2.07121251     4.34732579    -4.11196629    -0.09802019     0.02621362     0.48831716
O      -9.76978743     4.34921277   -11.96208198    -0.07420184    -0.25014128    -0.12665372
O      -5.98483953     4.11393806    -4.18093318     0.53964342    -0.09955209     0.70757452
O      -5.86894002     4.81340220    -7.80691524    -0.59187775     0.72369795    -0.74760930
O      -2.01919640     0.36160589    -3.97543155    -0.08359731     0.01425991    -0.32971580
O      -5.77984638     8.67225953    -8.11980003    -0.75566521    -0.44259016     1.12472393
O      -5.92344097     0.43824439    -4.18618329    -0.35262154    -0.72473134     1.23807047
O      -9.99194766     8.14647076    -7.99615362     0.51439002     0.27606261     0.11564744
