# total energy = -630.28636512 eV

CRYSTAL
PRIMVEC
        0.00279571     0.02951795    -7.98606283
       -7.83802570     0.01298533    -3.99532603
       -3.92160916     8.71933433     0.00634407
PRIMCOORD
56 1
Li     -3.84160420     2.24948716    -1.90751115    -0.38296098     0.27570039     0.08216506
Li     -3.81256968     2.22349383    -5.96956104    -0.45889008     0.06742743     0.06708405
Li     -7.76698364     2.47201372    -9.93053443    -0.06662147    -0.78690622    -0.29075476
Li     -7.79457555     2.22830379    -5.90546407    -0.07907028    -0.16720200    -0.29370136
Li     -3.83435950     6.55543132    -2.12933484    -0.13016579     0.16545986     1.66937470
Li     -4.03719202     6.65195591    -5.95930720     0.54580541    -0.40293964    -0.04623876
Li     -7.89685690     6.44725890    -9.95475189     0.14804579     0.05876042    -0.42143098
Li     -7.94132746     6.54048513    -5.81788183     0.69557302    -0.04428054    -0.99994299
Ti     -1.94647241     1.89963251    -3.98937890    -0.53952543    -0.88920832    -0.31252535
Ti     -5.92279352     6.56641405    -7.95549453     0.93131487    -0.40012531    -0.36563962
Ti     -7.91222069     4.37453736    -7.75736477    -0.20875917     0.69869686     0.08492161
Ti     -7.93460906     4.35695583    -3.83055658     0.51550097     0.44474493    -0.07768336
Ti     -3.87920578     4.38094376    -7.77619400    -0.42237487     0.47703975     1.44229799
Ti     -4.01263877     4.39920809    -3.70492789    -0.10476140    -0.43302787    -0.52699641
Ti     -6.06971855     8.65198070    -1.84099349     0.05381462    -1.22375424    -0.55120540
Ni     -5.89867540     2.18008770    -7.80639404     1.26251316     0.04863518    -0.37863516
Ni     -5.86841349     2.35912370    -4.05385700     0.48030288     1.51179274    -0.65678949
Ni     -9.87361683     6.44701958    -8.10703286     0.66934622    -0.84913987     0.89166460
Ni     -9.72460321     6.56993860    -4.02410671    -1.60872329     0.15249230     0.65893667
Ni     -1.93928668     2.14423092    -8.03554014     0.13843666     0.19143687     0.70759787
Ni     -5.82863108     6.66297929    -4.06707972    -1.13523106    -0.41055694     0.52873705
Ni     -2.03098837     0.07560847    -6.01105633     0.04487698    -1.22608629    -0.07518973
Mo     -5.94161474     0.09943465   -10.24570423     0.20184681    -1.77693449     0.01011101
Mo     -5.86397230     0.03937700    -6.38816016     0.15432584     0.48372175     2.20701432
O      -1.98666365     1.77575076    -2.06706362     0.54289963     1.97457323     0.20089457
O      -1.92423782     1.89966038    -5.87290228    -0.06073543     0.20923606    -1.28839542
O      -5.81681846     6.73838286    -2.08703920    -0.19949447     0.71722015     0.52899481
O      -5.97922138     6.85951257    -6.09347172     0.28692786     1.55046089     1.48297750
O      -5.71505606     1.77603971    -9.62393304    -0.26324315     1.82549952     0.39200443
O      -5.85225223     1.97970082    -5.97217309    -0.10970337     0.16081907    -0.47411867
O      -9.87049052     6.85576747    -9.97715283     0.34244023    -0.12123043    -1.89065398
O      -9.72657417     6.83045157    -5.92497304    -0.85225473     0.16183341     0.31890027
O      -3.91357379     2.42068206    -3.99355873     1.11453343     0.69921933     0.24009698
O      -3.96626758     2.37061433    -7.89759050    -0.14011913     0.85538836     0.12106393
O      -7.75633264     2.37703948    -4.08763977    -0.80865617     0.65071640     0.76259409
O      -7.81278293     2.37355522    -8.02955475    -0.65014179     0.40314836     1.05669443
O      -3.91002641     6.33207203    -3.87023908    -0.62332976     0.35881965    -1.62302649
O      -3.97468142     6.45009311    -7.94791765     0.58519516    -0.24084686    -0.56755633
O      -7.87619780     6.41542826    -4.03893341     0.58852892    -1.21380995     1.10582971
O      -7.92444735     6.31861291    -8.00471422     0.33848117     0.37580445    -0.45944402
O      -3.77376952     4.33350161    -1.94448804    -0.66282440     0.06603121    -0.37825242
O      -3.81922360     4.60024764    -6.00070876    -0.24198604    -0.78653486    -1.09290471
O      -7.73800078     4.28436430   -10.04699482     0.00719375     0.78906635     0.04034143
O      -7.76234373     4.45063908    -6.00686524    -0.38218373    -0.69665513    -0.21752719
O      -7.85226634     8.53118003    -2.06359047    -0.36592594     0.17954146     0.92825487
O      -4.03303223     0.05772703    -6.08239245    -0.47595961     0.24784960    -0.19540543
O      -7.64497468     0.06767342    -5.91022974     0.53480740    -0.19384241    -0.52644351
O      -7.68154362     0.14795034   -10.00127001    -1.19215956    -0.46619091    -0.47372248
O      -9.83226411     4.57307967    -8.09955065     0.38723986    -0.77868953     0.41486911
O      -1.98148743     4.27831768    -0.07677789     0.68146185    -0.60420173     0.09814295
O      -5.89739850     4.29222903    -4.17717709     0.44228279    -0.36319663     0.73884200
O      -5.90566624     4.73862361    -7.95006928     0.19619705    -1.03556650    -0.37512108
O      -2.12357696     0.03303354    -4.01618413     0.86446529     1.47847017    -0.24317412
O      -5.83737244     8.73667153    -7.97153183    -0.25148883    -0.46765297    -0.09575403
O      -5.61185824     0.58741536    -3.93463486    -0.87108842    -1.68901327    -0.79061369
O      -9.90809033     8.28497414    -8.09494871     0.27727704    -0.31068211    -0.95877978
