# total energy = -630.74408838 eV

CRYSTAL
PRIMVEC
        0.00279571     0.02951795    -7.98606283
       -7.83802570     0.01298533    -3.99532603
       -3.92160916     8.71933433     0.00634407
PRIMCOORD
56 1
Li     -4.03195562     2.14834971    -1.90657313     0.18746801    -0.08536790     0.01170086
Li     -3.88128938     2.47920919    -5.99874139    -0.04907316    -0.42000538    -0.38370104
Li     -7.79799884     2.13738744    -9.86742744    -0.69995784     0.24208705    -0.50707090
Li     -7.84191065     2.26303915    -5.91160491    -0.20542808     0.54129403    -0.08633284
Li     -3.97293114     6.39191359    -2.00916598     0.45686297    -0.11874717     0.30235069
Li     -3.80764210     6.36260688    -5.75455890     0.04564649     0.14676135    -0.78281665
Li     -7.89591366     6.83815618   -10.02903168     0.12300586    -0.29970935     0.29913833
Li     -7.75182338     6.21940459    -5.87035116     0.08225045     0.43812859     0.32533597
Ti     -2.07258213     2.19655598    -3.99721561     1.39294950     0.37733283    -0.60737308
Ti     -5.94002930     6.78126904    -8.03318394     1.77613849     0.11151080     0.76193136
Ti     -7.82405916     4.40203269    -7.77670275    -0.77469478    -0.97774537    -1.30001276
Ti     -7.99987623     4.43087083    -3.66988892     0.36564849    -1.14859622     0.83305709
Ti     -3.89226734     4.35685250    -7.81092354    -0.74107215     0.66088477     0.24073695
Ti     -4.16740373     4.24299656    -3.71729266     0.92188059     1.38268828    -0.39991438
Ti     -1.67482568     0.04450884    -2.15164126    -1.68286293    -0.90581127     0.00945936
Ni     -5.89013879     2.40330580    -8.03565328    -0.04609894     0.19457588    -0.29870906
Ni     -5.91318372     2.31743868    -4.15297570    -1.26427003    -0.45813613     2.58704674
Ni     -9.68856330     6.56534671    -7.79589386    -1.17421866    -0.02088955    -0.63952646
Ni     -9.84849017     6.52914622    -4.02624911     0.19522694     0.27806476     0.21177097
Ni     -2.00135333     2.09542263    -7.87663449     0.39811472    -0.13441276    -0.78363806
Ni     -5.79358543     6.46238508    -4.02145324    -0.85726283     0.00182636     0.47062775
Ni     -5.90151051     8.59939377    -6.00256928     1.24605365     1.45456843     0.12998506
Mo     -5.91791513     0.08876977   -10.26493525    -2.03056751    -0.04486964     0.55956903
Mo     -5.77364957     0.06187401    -6.32729923     0.20680256    -1.84163783    -0.42913826
O      -2.06451657     1.91891367    -2.00941532     0.57047083    -0.20656436    -0.07492165
O      -1.96029241     1.83056203    -6.05908273    -0.38271504    -0.87325405     0.92135449
O      -5.89189141     6.78072993    -2.00034400     0.15053634     0.36457085    -0.27655010
O      -5.68521178     6.76142408    -6.01475898    -1.39850262     0.17248220     0.67620600
O      -5.99263714     2.03914621   -10.10742138     1.06751618    -0.15180560    -0.38559252
O      -5.94776929     1.92667674    -5.90184462     0.60075082     0.28567624    -0.55266978
O      -9.80542943     7.01632088    -9.63938595     0.03014144    -1.05657508     0.09204004
O      -9.69014037     6.76460952    -5.98002218    -0.88106688     0.64298592     0.08542774
O      -3.93824873     2.30859820    -4.10613757    -1.05417637    -0.11227574     0.45287623
O      -3.88474615     2.39795440    -8.01450475    -0.56701878     0.33086810     0.65394174
O      -7.97964449     2.45612452    -3.95284873     0.57301115    -0.21730115    -0.61166751
O      -7.76893552     2.46798116    -7.94589521    -0.97764872    -0.69722024    -0.08058877
O      -3.86517325     6.16106757    -3.91730249     0.26155062     0.30580758     0.50918563
O      -3.94591816     6.39649896    -7.94437340    -0.34087849    -0.53246284    -0.91164677
O      -7.80141366     6.32737369    -3.87255074    -0.16885839     0.63143559    -0.95552434
O      -7.77644144     6.38011774    -7.85760266    -0.75716708     0.54733658    -0.49047790
O      -4.09699842     4.20083526    -1.97513566     0.50494654     0.18618071    -0.03049302
O      -3.81914438     4.36489374    -6.05394209    -0.31252398    -0.26989618     0.70031287
O      -7.86242276     4.28922505    -9.91202671    -0.28273250     0.41810104    -0.03329863
O      -7.76704452     4.32030962    -6.06089515    -0.52704098     0.10444162     1.85817911
O      -4.15700703     0.04457670   -10.01741243     1.35435942     0.69803556    -0.03220350
O      -7.98229281     8.64247680    -6.08898362     1.56044419     0.40155527    -0.03765623
O     -11.66390149     8.72069487    -6.19435521     0.53891502    -0.37618894     0.90768182
O     -11.72431712     8.70593597   -10.13107119    -0.25159348     0.49475968     0.53613953
O      -2.02657790     4.05285196    -3.99548107     0.06327968     0.02404094     0.15153303
O      -9.84583985     4.65633648    -4.04687266     0.04972326     0.37419448    -0.46378396
O      -6.03578168     4.36668582    -4.02463967     0.94677640     0.10077958    -0.45832364
O      -5.89935266     4.35527811    -7.95604235     0.93767656    -0.05009432    -0.38280917
O      -1.93501166     0.16251593    -3.99374010    -0.16589917     0.04529545    -0.15188624
O      -5.95898762     8.61047683    -8.10757974     0.13289673    -0.72664726    -0.16472195
O      -9.85436199     8.45454222    -4.03739586     0.19697231    -0.11774196    -1.81757035
O      -6.01400266     0.56966858    -8.07206345     0.58374101     0.23698705     0.01299579
