# total energy = -630.37171003 eV

CRYSTAL
PRIMVEC
        0.00279571     0.02951795    -7.98606283
       -7.83802570     0.01298533    -3.99532603
       -3.92160916     8.71933433     0.00634407
PRIMCOORD
56 1
Li     -3.99987139     2.22216116    -1.96894707     0.44758925     0.23046138    -0.48316435
Li     -4.05169712     2.00167155    -6.13154027     0.44870360     0.10947726     0.35741057
Li     -7.90625374     2.09325461    -9.99700571    -0.15159329     0.07199201    -0.13230485
Li     -7.80623026     1.95913630    -5.87631464    -0.65407650     0.41051866    -0.20591011
Li     -3.95221917     6.53650544    -2.06734473     0.30500634    -0.14315312     0.49122777
Li     -3.95546946     6.56564823    -5.82018667     0.42106544     0.05921788    -0.23332988
Li     -7.97019476     6.20425695    -9.87194647     0.13392129     0.34683449     0.04562264
Li     -7.80246183     6.62448695    -5.79478476    -0.07881360    -0.45640021    -0.06467458
Ti     -2.00507859     2.28003325    -4.10436834     0.10202072     0.66223931    -0.31287000
Ti     -5.84746929     6.64002694    -7.98482250     0.13986460     0.62609639     0.21058785
Ti     -7.80216429     4.38624241    -7.70978876    -0.89962612    -1.40738849     2.06442254
Ti     -7.85810699     4.29324724    -3.66470633    -0.77547320    -1.09616453    -1.12284907
Ti     -3.89655310     4.39072229    -7.59479029     0.56601223    -1.00734095    -1.27883807
Ti     -4.00314802     4.45614201    -3.74417666    -0.47756647    -0.83788651     0.00107141
Ti     -6.02095299     8.71899858    -2.19771123     0.53371265    -0.25010304    -0.73953358
Ni     -5.82506362     2.45255130    -8.14609565    -0.87326237    -2.03960734     0.78125054
Ni     -5.94610713     2.25249399    -4.01338723     0.13299285    -0.19107344    -0.90270006
Ni     -9.79447235     6.58119732    -7.82974688     0.37547110    -0.50234447    -0.23112645
Ni     -9.73375677     6.35140192    -4.07294409    -0.83746131    -0.58241187     0.40274089
Ni     -1.99971077     2.25782676    -8.09114626     0.52642755    -0.48364757     1.00166948
Ni     -5.87622045     6.57934943    -3.88028102    -0.45172878    -0.53533173    -1.52673777
Ni     -5.89974907     8.64843436    -5.98467141     0.43713999     0.76683576    -0.66252188
Mo     -5.89725703     0.09865082   -10.25775568    -2.14642628    -1.65473208     0.10772024
Mo     -9.81117602     8.71425415    -6.34867350    -0.02844742    -0.54662839    -0.69745552
O      -1.96076777     1.90346085    -1.96412467     0.52604495    -0.12935456    -1.32600831
O      -1.98717241     1.78629640    -6.14980403    -0.48830281     0.31393258     1.13093581
O      -5.98421794     6.71872577    -2.06145210     0.67501371     0.38951135     1.51252439
O      -5.85760066     6.81865024    -5.91488709    -0.23749950    -0.47907046    -0.01190575
O      -5.98322709     2.01404765   -10.01163819     0.96219944     0.97217741    -0.86574431
O      -6.01946621     1.94242159    -6.05767671     1.61835545     0.59624675     0.50501825
O      -9.73334982     7.02486934    -9.72517048     0.81904927    -0.30799750    -0.12283011
O      -9.83423659     6.76232326    -5.93396292     0.33407348     0.22506726    -0.02920867
O      -3.97480561     2.42078427    -4.04781695     0.90921680    -0.09881916     0.15663628
O      -3.94434432     2.53785843    -8.16133592     0.06772706    -0.62724505     1.12561579
O      -7.81720788     2.23586708    -3.96381176    -0.73108092     0.94798274    -0.12657964
O      -7.78340880     2.42563767    -8.08908271    -1.28851688     0.05561541     0.58692239
O      -3.80130798     6.35208890    -3.97724017    -0.88184035     0.77585965     0.42997285
O      -3.81613290     6.22846928    -7.92249909    -1.26769659     1.79885876    -0.34232039
O      -7.92365466     6.21074354    -3.80505658     0.54017609     1.19992812    -0.95769988
O      -7.78370413     6.27994043    -7.93528049     0.34505784     1.17625607    -0.05082962
O      -3.80269954     4.48518775    -2.01787713    -0.78930826    -0.17283913    -0.05212243
O      -3.83761257     4.43766547    -5.87044690    -0.07510501    -0.09503757     0.69769383
O      -8.04510501     4.28154672    -9.90545621     0.08401395     0.27671915     0.59619511
O      -8.00200691     4.41349465    -5.93190181     0.55627763    -0.05888670    -1.27653890
O      -3.88807762     0.20651855    -2.03839836    -1.14641353    -0.62914550    -0.51408690
O      -8.02069240     8.62399129    -5.99004544     0.36161372     0.19154316     0.05845210
O     -11.62819174     8.62790903    -6.15565166    -0.87378770    -0.04266444     0.17351295
O     -11.61831207     8.62142324    -9.95430446     1.25178739     0.94931694    -0.53966462
O      -1.98955122     4.24042741    -3.89585964     0.18841457    -1.66234080    -0.80141024
O      -1.97841547     4.12227694    -8.02977406    -0.25257578     0.65855349     0.10772393
O      -6.04626623     4.29024838    -3.99677969     2.77051973    -0.52178168     0.08695124
O      -5.86327470     4.28629178    -7.98456470     0.31408912     1.68623526     0.11959778
O      -1.83397140     0.24911148    -4.12676900    -0.78702464     0.40745540     1.58898623
O      -5.76282169     8.44438548    -7.97903959    -0.43007487    -0.14561982    -0.16025691
O      -5.95948087     0.25861257    -4.12101788     0.52832754     0.25788131     1.25112314
O      -5.66348562     0.56108691    -8.13851067    -0.57674297     0.31645623     0.28326827
