# total energy = -630.31326752 eV

CRYSTAL
PRIMVEC
        0.00279571     0.02951795    -7.98606283
       -7.83802570     0.01298533    -3.99532603
       -3.92160916     8.71933433     0.00634407
PRIMCOORD
56 1
Li     -3.85408701     2.20081059    -1.97998842    -0.12214322     0.16641332     0.13113156
Li     -3.87120879     2.05554509    -6.09095176     0.05011228    -0.16632017     0.68431594
Li     -7.66588491     2.46404978   -10.01234252    -0.44745481    -0.02023329     0.57388030
Li     -7.74265605     2.43123462    -5.93319801    -0.09706989    -0.35595872    -0.20715495
Li     -3.74117874     6.31936013    -2.05169188    -0.41320222     1.42881106     0.39769329
Li     -3.87954224     6.73033240    -5.87270341    -1.02953405    -0.74098138    -0.41364989
Li     -7.91844524     6.29867126    -9.85675387    -0.31621422     0.24385188    -0.57466178
Li     -7.79071623     6.69146811    -5.86705242     0.09013028    -0.16099531     0.08547391
Ti     -1.89845891     2.10935515    -4.04685809    -0.27674226     0.12137289    -0.02370725
Ti     -5.87197867     6.56664847    -8.06795650     1.35198909     0.28782733     1.98690252
Ti     -7.91662303     4.49317327    -7.66910714    -0.86246461    -1.53391934    -0.10235536
Ti     -7.88306562     4.31257826    -3.74366619    -0.21960914     1.68879852     0.13693958
Ti     -3.89695521     4.32338211    -7.62461989    -0.06703956     1.24277642    -1.41368998
Ti     -3.98714307     4.33049840    -3.91900980    -0.34851324    -0.60570413    -0.30448429
Ti     -6.14861758     8.70676416    -1.93379572     0.13394952     0.97725130    -0.64505480
Ni     -5.86966758     2.44729593    -7.96391191     0.12326094     0.42676708    -0.06897550
Ni     -5.94428094     2.09966537    -4.06216698     1.54172586     0.44492838     0.29997744
Ni     -9.96571159     6.53134138    -7.99219491     1.74266013     0.35645399     2.83489208
Ni     -9.80079241     6.40967776    -4.11122545    -0.21682682     0.40033878     0.96288445
Ni     -1.83781960     2.09141920    -8.02126157    -0.96609582     0.16265229     0.46706506
Ni     -5.87449069     6.51956343    -3.93619218    -0.48040880    -0.00408039    -0.81348548
Ni     -1.89941737     0.06766631    -5.99019678    -1.28103997    -0.27107457     0.16794956
Mo     -6.08895958     0.09620552   -10.25834693     3.78027804     0.49523391    -0.36684764
Mo     -9.70872626     8.70245123    -6.35912843    -1.78029886    -0.21069958    -0.38322172
O      -1.90709331     1.89884412    -1.95545362     0.34437545    -0.26943950    -0.19795538
O      -1.86817234     1.97069964    -5.97071649     0.11891811    -0.66487999    -0.92298215
O      -5.93198503     6.76084664    -1.93637353     0.04258950    -0.21881774    -0.64561852
O      -5.92998481     6.93286953    -5.93792454     0.53384803     0.29203542    -0.28357351
O      -5.76691263     2.02401981   -10.09747822    -1.57110307    -0.38989692    -0.41087374
O      -5.81043122     2.06951559    -5.93714895    -0.34372383    -0.99296891     0.18738267
O      -9.91917020     6.96743448    -9.69833738     1.17043271     1.00796366    -1.58185398
O      -9.69476126     6.76160023    -5.97888578    -0.21222763     0.26043261    -1.38476872
O      -3.91571335     2.28314028    -3.99911733    -0.04416369     1.02974461    -0.22901168
O      -3.82598055     2.48270872    -7.93433971    -0.30717958    -0.87048529    -0.52132351
O      -7.84705379     2.41347318    -4.01571125     0.51698707    -0.82323871     0.23346016
O      -7.82190355     2.52290847    -7.95404394     0.58474150    -0.79406107    -0.17877269
O      -3.93468102     6.40121679    -4.02060168    -0.51971335    -0.01858315    -0.04513615
O      -3.93388092     6.34737878    -7.88470549    -0.77766048     0.52847075    -1.14280956
O      -7.92050232     6.28324070    -3.95804534     0.65624748    -0.15206258     0.24187295
O      -7.91655890     6.35549624    -7.93245679     0.33484295     0.72832725    -0.41388410
O      -3.80441558     4.63794271    -2.22343103    -0.43191874    -1.95313632     1.44050230
O      -3.70172813     4.62413386    -5.96370056    -0.11479392    -0.47316031     2.65496929
O      -7.74226347     4.36616562    -9.92279776    -0.04351691     0.11018632    -0.80284304
O      -7.78157058     4.34969879    -5.94505246    -0.35772400     0.20325221     0.56052602
O      -3.97781997     0.19440182    -9.97713206    -0.14106344    -0.81582892     0.19221241
O      -3.99023642     0.07177092    -6.05098082     0.16483802    -0.10894099    -0.14860541
O     -11.46857021     8.64434880    -5.97296891     0.07160575     0.40710694     0.07891977
O      -7.78771733     0.04620528   -10.24684927    -1.94760645     0.56057028     0.41027929
O      -1.95734475     4.07086138    -3.96689995     0.00293216    -0.06278085    -0.30126842
O      -2.05114602     4.53818849    -0.01333947     2.16566226     0.17640708    -0.57465636
O      -5.93214322     4.43905551    -4.08434697     0.29954021     0.40334952     0.22444713
O      -5.83557210     4.47441222    -7.75273039    -0.62552118     0.09039757    -1.13459052
O      -1.98730287     0.11944064    -4.09370029     0.59590196     0.70681033     1.28204678
O      -5.92621141     8.54314749    -7.99719192     0.18809045    -0.96421042    -0.20984660
O      -9.64189359     8.35373702    -4.00602233    -0.44978984    -0.03677611     0.54292734
O      -5.93789127     0.63532143    -8.10239745     0.14934716    -0.54247112    -0.45736831
