# total energy = -630.36759516 eV

CRYSTAL
PRIMVEC
        0.00285542     0.02004370    -7.95977623
       -7.82940539     0.00763210    -3.98158109
       -3.91729101     8.74642787     0.01461334
PRIMCOORD
56 1
Li     -3.88993405     2.20374239    -1.94239044    -0.23317155    -0.03287115     0.00777689
Li     -3.83987004     2.06191319    -6.16482286    -0.34732100    -0.21468362     0.80240117
Li     -7.91801716     2.44212274    -9.99270970     0.26405529    -0.38071464     0.45487687
Li     -7.77683635     2.25040222    -5.76239292    -0.09327621     0.20518793    -0.45920997
Li     -3.84905879     6.36378637    -1.91833560    -0.31221584     0.11219499    -0.05217547
Li     -3.78353360     6.58216519    -5.86775200    -0.61784035    -0.29565722    -0.20295224
Li     -7.83274580     6.68988174    -9.97039453    -0.29614373    -0.26386320     0.42578771
Li     -7.85452791     6.79495153    -6.00164630     0.13463232    -0.45419947     0.46891972
Ti     -1.90661988     2.26405304    -3.92458357    -0.92164406    -1.37612865    -0.64673915
Ti     -5.87138640     6.75607954    -7.82027720     0.79198182    -0.05571895    -1.29330530
Ti     -7.81024628     4.45359453    -7.74482995     0.61301804    -0.28133190    -0.69763198
Ti     -7.76155791     4.37568928    -3.64846734     0.44358418     1.23316922    -0.73554625
Ti     -3.81984947     4.28446819    -7.66476412    -0.13241239     1.02992829    -3.01110062
Ti     -3.95042295     4.36332356    -3.73967736    -0.74571476     0.33399417    -0.16146141
Ti     -6.04061326     8.67346131    -2.11758323    -0.51601356     1.06006188     0.24313717
Ni     -5.88454235     2.36729893    -8.01072489     0.12557008    -0.54032358    -0.57820495
Ni     -5.87146696     2.08576150    -3.97792089     0.17166750     0.85716294    -0.85704699
Ni     -9.84521790     6.67190389    -7.79395604    -0.01586592     0.00252351    -0.72717771
Ni     -9.66201986     6.37820570    -4.10748582    -2.17643185     0.13161611     0.55316110
Ni     -1.99460059     2.16123829    -7.97286296     1.14818704    -0.12071313     0.56523725
Ni     -5.84469038     6.55704134    -3.98221851    -0.56763598    -0.34639597    -0.13428374
Ni     -5.90993459     8.71327648    -5.84860541    -0.12419121     2.57869121    -1.31561725
Mo     -6.02309615     0.03318404   -10.31329952     1.14995838     0.02255262     1.16251380
Mo     -5.97616392     0.02906667    -6.29724029     1.63461232    -1.58589659    -1.49425599
O      -1.81371237     1.84855148    -1.89700132    -0.46322310     0.65339103    -0.65245306
O      -1.90889236     1.83363727    -6.00778488    -0.66567059    -0.07720438     0.41703132
O      -5.82921469     6.85679013    -2.05843230    -0.21282811    -1.51049234     0.78066213
O      -5.89275834     6.94871067    -5.93622783     0.20880803    -1.67559505     0.84359597
O      -5.85891698     1.97914002   -10.09094311    -0.44714709    -0.08436648     0.55434216
O      -5.85961236     1.91087111    -5.99258735    -0.60401262     1.00712199     1.30430598
O      -9.82987474     6.93554201    -9.71289621     0.74152631     0.78794305    -0.30279172
O      -9.71832046     6.76427147    -5.93716034    -0.52299971     0.64920217    -0.92732645
O      -3.94139720     2.43424558    -3.89608389     0.36470097    -0.81042092    -0.54854027
O      -3.88620292     2.35705026    -8.02316866     0.04391666     0.45272628     0.14706323
O      -7.83690095     2.50120828    -3.91642951    -0.00194722    -1.17669665    -0.42574013
O      -7.90504778     2.47011352    -8.03206426     1.91392849    -0.78270344     0.64535181
O      -3.93180852     6.41812908    -3.96591835     0.94991857    -0.78961618     0.30589683
O      -3.82731610     6.30361496    -7.98903170    -1.12460008    -0.34681360     1.03093690
O      -7.88948405     6.35209893    -3.92035703     1.70165375     0.14973810    -0.22599108
O      -7.81401161     6.39551650    -7.95161163     0.60867658     0.87499804    -0.23633612
O      -4.00871831     4.29932623    -1.98991743     0.25680908     0.38668610    -0.36659430
O      -3.86142148     4.18856522    -5.98522272     0.35036534     0.27410357     2.68830937
O      -7.76191641     4.43611162    -9.84029871    -0.22531674     0.17197173    -0.94826134
O      -7.89174404     4.63392270    -6.05853456     0.03109261    -0.50792594     1.89644251
O      -3.97624007     0.06845689    -2.03702623    -0.05653835    -0.52532835    -0.07898966
O      -4.08147920     0.03156404    -6.22565299     0.09464458    -0.54845485     1.05606983
O     -11.63978463     8.60414107    -5.89097935    -0.10962486     0.62163921    -0.59882304
O     -11.67713365     8.76198280   -10.11832405    -0.25550695    -0.00752508     0.34094016
O      -1.91645211     4.07060694    -3.98253989    -1.64461154     1.62762720    -0.08093159
O      -9.68935257     4.47424334    -4.11681837    -0.54319312     0.14828991     0.58969514
O      -5.88325599     4.53197136    -4.18023482     0.33317301     0.26338859     0.78745666
O      -5.84546950     4.28804521    -7.86825060     0.38808064     0.14963286    -0.19235146
O      -1.99057391     0.23335615    -3.95990720     0.23612329    -0.32986152    -0.40840192
O      -5.84324052     8.55812483    -7.91361638    -0.11156869    -0.71181703    -0.39157300
O      -9.74944433     8.60631818    -4.13574003     0.28295721    -0.34062296     1.00319128
O      -5.84547035     0.50297118    -8.10711137    -1.15567675     0.44197789    -0.22785347
