# total energy = -630.78226213 eV

CRYSTAL
PRIMVEC
        0.00279571     0.02951795    -7.98606283
       -7.83802570     0.01298533    -3.99532603
       -3.92160916     8.71933433     0.00634407
PRIMCOORD
56 1
Li     -3.89433241     2.28466164    -2.01955452     0.15263250    -0.34720526     0.54272099
Li     -3.85018806     2.24827607    -5.92414137    -0.87097355    -0.04263194    -0.54390425
Li     -7.66549345     2.61883543    -9.95694533    -0.31351426    -0.53373305    -0.55967150
Li     -7.83146982     2.42841099    -6.02128044     0.40417575    -0.83812768     0.77086756
Li     -3.98465244     6.47757249    -1.85199383     0.49289704    -0.08011601    -0.47691154
Li     -4.01006683     6.60978810    -5.83623073     0.37081568    -0.31454220     0.29864135
Li     -7.86661760     6.52530018    -9.83889599    -0.31802679    -0.16074503     0.06562708
Li     -7.99341208     6.60458087    -5.96908183     1.28659167    -0.08641784     0.13297268
Ti     -1.85874042     2.12717671    -4.17698177    -0.60375397     0.03047454     0.09750643
Ti     -5.78506115     6.59970137    -7.91194938    -0.86927587     0.00195963     0.15175865
Ti     -7.83395548     4.34842204    -7.69161045     0.09363834     1.59093010    -2.06571868
Ti     -7.84824253     4.46943451    -3.72330605    -0.43678884    -1.72893511     0.62289860
Ti     -3.77723268     4.33567343    -7.64756170    -0.49162225    -0.36762776     0.92599690
Ti     -4.03509222     4.25553464    -3.68396272     0.77416898     1.25271322     0.08253859
Ti     -2.16997443     0.00979086    -2.10908427     0.49101996    -0.51703129     0.12047066
Ni     -5.85207572     2.45755287    -8.07728113     0.71180914     1.36041844     0.55162919
Ni     -5.91956420     2.24249157    -4.04878848     0.08054712    -0.29010395    -0.31158339
Ni     -9.87803925     6.53101022    -7.81184370     0.76255190     0.02545441    -0.92069246
Ni     -9.77610612     6.54248983    -4.14829738    -0.47692633     0.41798646     2.01008248
Ni     -1.91810519     2.08968087    -8.06620299    -0.11976282    -0.11560354     0.13126149
Ni     -5.92105327     6.50836473    -3.89090934     0.52761950    -0.08246356    -0.60079388
Ni     -5.88644134     8.73012019    -6.08092319    -0.99443236     0.30985335     0.41571228
Mo     -6.06402590     0.08794154   -10.19951353     0.34425843    -0.76354925    -1.26623517
Mo     -9.74858545     8.69720473    -6.39344169    -0.97579566     1.75078106    -0.21350547
O      -1.79260573     1.86267663    -2.01860308    -0.70455487     0.22269557     0.01716202
O      -2.03651732     1.85331787    -6.22904147     0.99835261     0.11585503     1.77377528
O      -5.87164101     6.69001915    -1.91577769    -0.23435170     0.70893444    -0.65176627
O      -5.98686393     6.93990593    -5.89030518     0.68274278    -1.23380181    -0.46673178
O      -5.83225752     2.01986134   -10.18941816    -0.59000920     0.09219597     0.34994094
O      -5.81345935     2.02486610    -5.86908482    -0.69681562    -0.89006082    -0.79395128
O      -9.84474390     6.97222047    -9.65645042     0.34336939     1.02406025     0.30228011
O      -9.81236227     6.76716764    -5.98313584     0.09301067     0.02592537    -0.92568967
O      -3.93675731     2.37984867    -4.02996186     0.38759639    -0.83743607     0.45196358
O      -3.88367418     2.42074026    -7.92988802     0.04161472     0.45370487    -0.52209499
O      -7.91314623     2.45369349    -3.95923254     0.65947504     0.44951730    -0.07365705
O      -7.81852642     2.30520938    -8.09367629     0.29710883     1.57108245     0.31645202
O      -3.87028162     6.25076662    -3.91475008    -0.55672862     0.03588744     0.27867392
O      -3.85345438     6.42040523    -7.81408305    -1.13136002    -0.42771284    -0.61922656
O      -7.91466508     6.30817342    -4.01875538     0.88776503     1.52426541     0.03863406
O      -7.82420469     6.36034930    -7.90001543    -0.48586073    -1.14662916     0.27957265
O      -3.86094296     4.23788370    -1.90454162    -0.16651916     0.43514450    -0.92805722
O      -3.84941961     4.26942493    -5.85527418     0.07111399     0.48447796    -1.32344910
O      -7.95962213     4.44372809    -9.90944436     0.27540829     0.15002017    -0.75070742
O      -8.04258735     4.30984550    -5.99335598     0.48418110     0.20751104     1.29163756
O      -3.93951885     0.14967409    -2.03709571    -0.44086758    -0.58650903    -0.09137957
O      -4.01195282     0.04394705    -6.15402735    -0.06451528    -0.52903922     0.26017430
O     -11.50511047     8.64622712    -6.01982610    -0.22583474     0.24856433    -0.05084936
O     -11.74772365     8.73933148   -10.21308541     0.34598604     0.37716951     0.39195828
O      -1.93655733     4.03569320    -3.94504120    -0.30108798    -0.36003079    -0.42665485
O      -9.81419576     4.74694207    -3.96396032     0.59991354    -0.72479943    -0.26336223
O      -5.93111594     4.44578694    -4.04597072    -0.08153570     0.06686559     0.31856726
O      -5.80853569     4.42540098    -8.03582505    -0.54171532    -0.03559227     0.70411507
O      -1.82430853     0.16593497    -4.03938221    -0.49196567     0.32019568     0.16391328
O      -5.93379035     8.41990423    -8.05174163     0.32968277     0.34547017    -0.24256490
O      -9.71539026     8.40312646    -4.04726504    -0.01453659     0.60952360     1.11853606
O      -5.95659156     0.73126363    -8.16501093     0.49808831    -2.74295085     0.11557806
