# total energy = -630.71919131 eV

CRYSTAL
PRIMVEC
        0.00285542     0.02004370    -7.95977623
       -7.82940539     0.00763210    -3.98158109
       -3.91729101     8.74642787     0.01461334
PRIMCOORD
56 1
Li     -3.87954024     1.98849052    -1.93345772    -0.59218975     0.89344129     0.36269151
Li     -3.83226669     2.08870669    -6.01869655    -0.71763199     0.02846325    -0.12400082
Li     -7.82225802     2.42028375   -10.11166687    -0.16990256     0.11852554     1.50416939
Li     -7.81053760     2.25938943    -5.87454244    -0.30008528     0.05711824    -0.05532999
Li     -3.84574331     6.34239482    -1.95328892     0.01255069     0.27657152    -0.15376217
Li     -3.82822175     6.24694538    -5.78728604     0.05322273     0.92735573    -0.01105859
Li     -7.94075051     6.48111370    -9.85441194     0.14521844    -0.13910994    -0.09821924
Li     -7.58838552     6.61552677    -5.86186056    -0.91291720     0.05114159    -0.01522092
Ti     -1.95395370     2.15574939    -3.95826981     1.43703795     0.72402538    -0.32323065
Ti     -5.67212259     6.63491523    -7.91204623    -2.10724143     1.49987319     0.32541060
Ti     -7.83783369     4.44111923    -7.67536744    -0.17093951    -0.98784360    -0.19763915
Ti     -7.84848351     4.44839540    -3.80785523    -0.09047388     0.85008935     1.88525188
Ti     -3.85073071     4.36923941    -7.88868955     1.01455069    -2.57585497    -0.08273072
Ti     -3.97611203     4.32494675    -3.84189784    -0.18398573     0.75514014     1.97859303
Ti     -6.08072239     8.71300784    -2.05297643    -0.00994695    -0.10507329     0.68654717
Ni     -5.94542101     2.40086817    -7.82527035     0.89606801    -0.20119126    -1.37429374
Ni     -5.92348765     2.23513359    -4.00924592    -0.23574994    -0.19491832     0.80613277
Ni     -9.70453661     6.53839321    -7.85187527    -1.52195692     0.57155254    -0.03929812
Ni     -9.75595008     6.52008361    -4.04430969     0.60747385    -1.98159393     0.16690478
Ni     -1.84858200     2.10153204    -7.92513808    -0.99726222     0.02708308    -0.24160911
Ni     -5.80405211     6.62110254    -3.92071415    -0.70392282     0.04142535     0.26870244
Ni     -5.86195581     8.75638659    -5.95838203     0.02878356    -0.93519104     0.00049235
Mo     -6.03700883     0.09077045   -10.27553268    -0.69038773    -0.03020099     1.14066440
Mo     -9.81897705     8.65875087    -6.31704760    -0.92383570     0.90788659     0.19208285
O      -1.92211834     1.97716884    -1.95787660    -0.04746744    -0.81363321    -0.35485482
O      -1.95554329     1.84033808    -6.01498314     0.05158622     0.05248684     0.11169147
O      -5.96972441     6.80716138    -1.91838558     0.52604645    -0.80827589    -0.49028644
O      -5.74791410     6.81454281    -5.84902905    -0.06626031     0.98199732    -1.23323970
O      -5.92630378     2.00537780   -10.00659310     0.19060256    -0.54894261    -0.69518780
O      -5.97613456     1.94745934    -5.84015052     0.89988117    -0.49439136     0.02643114
O      -9.81758672     6.97498530    -9.67606982     0.19231729     0.38694352    -0.20539529
O      -9.67151338     6.80336839    -6.03918513    -0.56017174    -1.34960241     0.76414759
O      -4.04954406     2.40366516    -3.96281935     1.32518711    -0.47555237    -0.65711387
O      -3.83356628     2.40877535    -7.96424670    -0.19766858     0.51582811     0.33134325
O      -7.81136028     2.50827802    -3.92960716     0.09710631    -0.95966193    -0.75483896
O      -7.81732143     2.38053493    -7.98059617    -1.40633477     0.66089448     0.31228141
O      -3.88098544     6.44128178    -3.79796279     0.96848708    -1.51976912    -1.02688981
O      -3.85320512     6.39835647    -7.90051015    -0.20225826     0.32395631    -0.99502294
O      -7.83541762     6.41354525    -3.98557517     0.19292016     0.15962392     0.16292573
O      -7.83646060     6.30658728    -7.83783232     0.84832413     0.78386126    -0.21323033
O      -3.88493496     4.26346076    -2.03611475    -0.19079505     0.96265425    -1.13653557
O      -3.91657312     4.48673648    -6.15454452    -0.03067526    -0.62867420     2.14709773
O      -7.96084473     4.48480384    -9.93008375     0.11127844    -0.43894492    -1.33163988
O      -7.93706888     4.31781687    -5.91008645     0.31023908    -0.06718599    -0.76647160
O      -4.03281381     0.11146762    -9.90579088     0.03923084    -0.14283843    -0.59290002
O      -7.98569480     8.65906998    -6.00601328     0.52932327     0.83383936    -0.23846534
O      -3.84674975     8.59192568    -2.04355284     1.31125271     0.24486814     0.35928274
O      -0.01385980     0.02174257    -6.13786563     1.10987216     0.50099026    -0.17017060
O      -1.96593741     4.11139183    -4.09105167    -0.84555738    -0.70229823     0.20231994
O      -9.76075833     4.64699810    -4.10049985    -0.68879244     0.37054724    -0.00156717
O      -5.90892357     4.72644853    -3.95709505     0.99011270    -0.34717637    -0.50033333
O      -5.91694909     4.37811251    -7.99948070     0.56595434     0.30716795     0.04128879
O      -1.90261752     0.14788340    -3.91721570    -0.43868735     0.36671708    -0.67302620
O      -5.89929802     8.49914204    -8.10457327     0.38854236    -0.65676213     1.57061294
O      -9.75761350     8.30757577    -4.02968423    -0.10083882     1.38626412     0.04895551
O      -6.03825099     0.56062665    -8.02361549     0.57550056     0.18156369    -0.58628807
