# total energy = -631.08135049 eV

CRYSTAL
PRIMVEC
        0.00285542     0.02004370    -7.95977623
       -7.82940539     0.00763210    -3.98158109
       -3.91729101     8.74642787     0.01461334
PRIMCOORD
56 1
Li     -4.01551580     2.11199677    -1.97797282     0.74364162     0.03303281     0.27934854
Li     -3.95808710     2.35863840    -5.99851018    -0.00691303    -0.07842381    -0.24005948
Li     -7.83719035     2.10225371   -10.07209015     0.03489459     0.42907154     0.22315966
Li     -7.71701184     2.27423996    -5.88749443    -0.55779081     0.25084945    -0.64174448
Li     -3.82681424     6.50785694    -1.91281255    -0.82278932    -0.18120030    -0.05815217
Li     -4.03294933     6.53208975    -5.72152704     0.23115986     0.01944101    -0.58156569
Li     -7.91135949     6.64271285    -9.98598086    -0.03209342    -0.02822173     0.09891664
Li     -7.83563620     6.20765391    -5.81593958    -0.18328994     0.83354840    -0.14887386
Ti     -2.00279955     2.08007231    -4.04208577     0.58873471    -0.12700027    -0.00449071
Ti     -5.98313932     6.70595873    -7.90536216    -0.06933452     0.03896464    -0.37120376
Ti     -7.92877479     4.40406995    -7.77643731     0.44211541    -0.12207969    -0.68638544
Ti     -7.77383341     4.35989698    -3.73824342    -0.04879287    -0.04082793     1.78294349
Ti     -3.90248966     4.49277245    -7.68894760    -0.20005341    -1.19262075     0.53712379
Ti     -3.86323787     4.35568101    -3.69693078    -1.44707187     0.86899123    -0.00890381
Ti     -5.64953617     8.75027580    -1.90558875    -1.42764562     0.46953027    -0.97059985
Ni     -5.86147125     2.38605916    -8.09852285    -0.15331620     0.65763572     0.41748920
Ni     -5.84647758     2.23805975    -4.04727053    -0.67877081    -0.77271297    -0.53974235
Ni     -9.82400455     6.42536426    -7.82272376    -0.04713505     0.58266293    -1.06854357
Ni     -9.88195852     6.38954315    -3.92784942     0.06459985     0.16442329     0.08293152
Ni     -1.90307779     2.35649273    -7.98164678    -1.08664887    -0.36832055    -0.22280235
Ni     -5.91283924     6.53508002    -3.94155881    -0.31023560     0.39432401     0.08231348
Ni     -5.83261746     8.75354037    -5.95464842    -0.89154168     0.61249573    -0.07016452
Mo     -5.95686198     0.03974685   -10.19372521     1.11246626    -1.70941564    -1.88337984
Mo     -9.71381045     8.67922869    -6.31774861     0.47720208    -0.53954627     0.30408519
O      -1.97513934     1.94277527    -2.07345445     0.13032269     0.07280139     0.92703673
O      -1.89848206     1.90583832    -6.04120826    -0.33056732    -0.81143572     0.05631132
O      -5.94596083     6.83223113    -1.97452467     0.17349518    -0.20221834     0.12691303
O      -6.03711967     6.89823604    -5.91268878     0.80783696    -0.02689065     0.28843641
O      -5.86176694     2.04423738   -10.08123842    -0.45854228     0.14503233     0.43890916
O      -5.94500131     1.82774083    -5.98356153     0.44079226     1.76242757    -0.19470094
O      -9.88414603     6.86664362    -9.86175969     0.05212466     0.34239827     0.09910924
O      -9.80560770     6.73687162    -5.98566289     0.33492510     0.82203691     0.92762822
O      -3.87965769     2.29822222    -4.06596729    -0.68749197     0.94064867     0.47683628
O      -3.91675407     2.49094213    -7.95116813     0.00469607     0.32503798    -0.13601776
O      -7.83760489     2.39240573    -4.06833004     0.24103871     0.40649106     0.54389027
O      -7.92395464     2.52533061    -8.04217805     1.18342489    -1.37825624     0.34304359
O      -3.86101121     6.39809289    -3.87300156    -0.73444926    -0.89311174     0.19724538
O      -4.07147613     6.49407473    -7.85997561     0.80939636    -0.89024287    -0.27597125
O      -7.98053063     6.29883240    -3.97090780     0.46185460    -0.00627878     0.39301549
O      -7.91778147     6.42453576    -7.98947883     0.52082367    -0.61188659     0.43432907
O      -3.78467763     4.42097538    -1.95022766    -0.02656879     0.06248792    -0.10993908
O      -3.91357721     4.44025799    -5.91510977    -0.00372413     0.15261581    -0.39097249
O      -7.77116330     4.33527679    -9.90336294     0.16268011     0.47672203    -1.21034353
O      -7.63006031     4.42900072    -6.03147681    -0.38690135    -0.52264937     0.25089113
O      -8.02204706     8.73342562    -2.07858137    -1.11891180    -0.02027545     0.03966970
O      -4.08614194     0.07588677    -6.09510630     0.60273743    -0.65505743     0.17625462
O     -11.71488909     8.70611488    -5.89542055     1.25491223    -0.31338480    -0.53158957
O      -3.91978565     8.72619487    -6.16432275     0.71679329     0.33614712     1.03334823
O      -1.99588514     4.22557677    -4.07014191     0.42595500    -0.17276528     0.19328710
O      -1.93152039     4.29111338    -7.92361176     0.08748091     0.47192584    -0.38199559
O      -5.83519871     4.26202457    -3.90680485     0.30768089    -0.11592057    -0.57394001
O      -5.80334705     4.37611625    -7.99571078    -0.92113724     0.08770109    -0.32062652
O      -1.96236210     0.20734240    -3.89434956     0.18000633    -0.23947792    -0.87367962
O      -6.00580353     8.58997620    -7.96781341     0.03792707    -0.48120039     0.06898713
O      -6.01046729     0.25863305    -4.12919182     0.74068374     0.21528722     1.32425772
O      -5.90496357     0.48997763    -8.11862875    -0.57056799     0.75095314     0.10214924
