# total energy = -630.85391278 eV

CRYSTAL
PRIMVEC
        0.00285542     0.02004370    -7.95977623
       -7.82940539     0.00763210    -3.98158109
       -3.91729101     8.74642787     0.01461334
PRIMCOORD
56 1
Li     -3.97758241     2.19411526    -1.93768641     0.55174501     0.00507377     0.17079244
Li     -3.90468266     2.39864412    -5.88952188    -0.13953783     0.10562806    -0.31480310
Li     -7.85999231     2.21337244    -9.90271152     0.14209357    -0.07920866    -0.24034262
Li     -7.86842065     2.24994725    -5.85327708     0.54356364     0.00202519    -0.22691642
Li     -3.73014799     6.58314555    -1.95465409    -0.51025932    -0.03501591     0.17505190
Li     -3.95094867     6.38308603    -5.75587349     0.06535653     0.03566441    -0.45118863
Li     -7.99535395     6.46963427    -9.87991947     0.29788208     0.13387498     0.01054640
Li     -7.82243093     6.30681977    -5.93141336    -0.33833377    -0.28952235     0.29519072
Ti     -2.05257829     2.04810459    -4.00769111     1.15800642    -0.79657830     0.06532080
Ti     -5.96223815     6.48556488    -7.87579662    -0.03705173     0.29441300     0.04543772
Ti     -8.01553524     4.20595110    -7.81106226     0.55820505     0.77915001     0.15165015
Ti     -7.89973825     4.31809703    -3.70276170    -0.89057306     0.34174578     0.46540854
Ti     -3.93247825     4.39278457    -7.77037026     0.54401706     1.54860441     2.37055732
Ti     -4.04790982     4.36512592    -3.74272013     0.30119953     1.38363514    -0.78029343
Ti     -5.63794880     8.68524518    -2.00893370     1.01365459    -0.52197009    -0.21422294
Ni     -5.74911592     2.51831199    -8.03846321    -2.28278608    -0.54653558     0.56243908
Ni     -5.86975979     2.32585425    -3.88261081    -0.51870003    -0.78891138    -0.58276570
Ni     -9.81609897     6.74924781    -7.94754123    -0.12555949    -0.09959780    -0.02091059
Ni     -9.75797537     6.56288170    -3.96766419    -0.93719389    -0.65836050     0.11488520
Ni     -2.03329945     2.10823287    -7.94042089     1.04644468    -0.26097851     0.20945583
Ni     -5.92704003     6.48872034    -3.80239334     0.07304710     0.17989327    -1.80825000
Ni     -5.88333690     8.69000743    -6.04342863     0.38611430    -0.81451143     0.83304805
Mo     -5.96213952     0.15417294   -10.33493365     0.11709702    -0.70523785    -0.11580163
Mo     -5.66473751     0.08938264    -6.32528120    -1.77426610     1.01351811    -0.33873982
O      -1.94184259     1.79910263    -1.94466496    -0.60581610     1.16595301     0.25012683
O      -1.91718410     1.74866942    -6.04549063    -1.06710274     1.13098141    -0.03129570
O      -5.97053482     6.82974441    -2.00866110    -0.02078089    -0.76351023     1.13483183
O      -6.02000239     6.73321336    -5.94373617     1.00327914     1.14988226     0.00559096
O      -5.85601178     2.08628434    -9.97885564    -0.29038201    -0.04683877    -0.86430908
O      -5.83972915     1.95304109    -5.78459461    -0.01562564    -0.43937463     0.40258640
O      -9.84659812     6.89691167    -9.82068887    -0.84512376     0.41744751     0.12876973
O      -9.69958828     6.97826052    -6.08446681    -0.05307279    -1.79515702     0.49581591
O      -3.89837486     2.39791269    -3.88887729    -1.45636647    -0.96597034    -0.57004168
O      -3.88802305     2.53054985    -7.93852944     0.48444084    -1.36980922    -0.17710887
O      -7.83116832     2.41718565    -3.92159420    -0.14057338    -0.16525326    -0.21693374
O      -7.79700712     2.28147190    -8.01768205    -0.38773422     0.94268397     0.47902364
O      -3.87737959     6.38558201    -3.85154768    -0.18644925    -0.60998175    -0.20120371
O      -4.04475565     6.36538586    -7.95723663     0.79453959    -0.36681328    -0.03656956
O      -7.83334092     6.27790743    -3.87384989    -0.32656325     0.35884560    -0.53367384
O      -7.94980547     6.25895517    -7.93016309     0.14100645     0.25486861    -0.17191035
O      -3.94649716     4.26348850    -2.00075919     0.24853273     0.27698785     0.88115563
O      -3.80664994     4.34604536    -5.89050425    -0.34689393     0.02241190    -1.30781192
O      -7.72729783     4.34539864    -9.87338012    -0.10301270    -0.11061956    -0.84298221
O      -7.74776505     4.21306322    -6.07694131    -0.41717270     0.38969286     1.19304434
O      -8.09647306     8.69249759    -2.13021213    -0.11657764     0.85719625     0.21901209
O      -3.96033631     0.04250613    -6.05766631     1.43267013     0.08861959    -0.00933997
O     -11.63417108     8.67873576    -6.09035231    -0.71334369     0.25980330     0.18851627
O      -7.84407955     0.19607111   -10.08953780     1.52866840    -0.96566640     0.18492749
O      -2.01590890     3.93584805    -3.96890032    -0.32143961     0.69779710    -0.12578279
O      -9.87543397     4.66337520   -11.89965530     2.03537111     0.58146907    -0.50925045
O      -5.92367542     4.57797050    -4.06396339    -0.11091283    -0.40386076     0.45329267
O      -5.89919750     4.46636281    -7.84913453     0.57516508    -0.42584699    -0.75483317
O      -1.97452199     0.15125075    -3.99717202    -0.25728067    -0.32484261     0.34977279
O      -5.85483335     8.35996378    -7.90894726    -0.52201633     0.60223855    -1.28231459
O      -9.88616903     8.38580131    -4.15583654     0.22059955     0.49177616     0.59324412
O      -5.82204410     0.67113092    -8.06783417     0.29644411    -0.31800693     0.31159044
