# total energy = -630.53144415 eV

CRYSTAL
PRIMVEC
        0.00285542     0.02004370    -7.95977623
       -7.82940539     0.00763210    -3.98158109
       -3.91729101     8.74642787     0.01461334
PRIMCOORD
56 1
Li     -4.07772781     2.17490337    -1.86534954     0.55579195     0.38172802    -0.18306806
Li     -3.89991094     2.06070673    -5.93202959    -0.39335013     0.02656715    -0.22752639
Li     -7.86840526     2.24730095    -9.94236758     0.58685631     0.35986645    -0.27527784
Li     -7.83351027     2.04743603    -5.83977934     0.38993514    -0.17443948    -0.27050288
Li     -3.93253498     6.20019494    -1.94330445     0.26204878     0.55210067     0.07387468
Li     -4.00623048     6.32446970    -5.84450475     0.44754257     0.18660520     0.15122360
Li     -7.85588192     6.30038561    -9.77876574    -0.08771637     0.30459651    -0.91441495
Li     -7.90613531     6.46019393    -5.87688860     0.59447617     0.25623018     0.40759989
Ti     -1.86394500     2.34459020    -4.09660090    -1.26457451    -1.95814995     1.16551782
Ti     -5.90062368     6.67207254    -7.80844940     0.87166445     1.64843526    -1.71911645
Ti     -7.76245142     4.39684668    -7.63911143     0.25500679     0.29173584    -2.58366192
Ti     -7.83355074     4.36599081    -3.78924747    -0.72016358     0.48592174     0.60741439
Ti     -3.85348145     4.40968019    -7.61356585     0.59514528    -1.40386341    -1.50684254
Ti     -4.08472544     4.31735473    -3.73435699     0.94699278     0.45303095     0.96630184
Ti     -6.14800267     8.69340105    -2.22162981     0.73762199    -0.18240085     0.63787834
Ni     -5.85508880     2.40155207    -7.95900173     0.36764841    -0.11789315    -0.11449683
Ni     -5.93892397     2.28654457    -3.94198660    -0.04092994    -0.47743335    -1.37943916
Ni     -9.77828515     6.57935082    -7.88751182    -0.82592772     0.01930387     1.33770814
Ni     -9.82599276     6.48459661    -4.04648444     0.66909584    -1.85277295     0.07767329
Ni     -1.89908361     2.18806788    -7.98398210    -1.68741969    -0.26509236    -0.14966759
Ni     -5.81802747     6.64948910    -3.97447143     0.10998000    -0.57726672     0.71917485
Ni     -1.96249501     0.05615664    -5.97291411    -0.26005643    -0.36171016    -0.64128189
Mo     -9.93052267     8.74298165   -10.25769546     1.78083841     0.86585355     0.79030679
Mo     -9.76982789     8.66702755    -6.30023680    -0.12999208     1.40821609    -0.75233377
O      -1.83417661     1.81922840    -2.07573954    -0.90835016     0.40526717     0.85643257
O      -1.87170381     1.90313589    -6.01915329    -0.87381671    -0.30062899    -0.22475012
O      -5.71028446     6.86427286    -1.99927551    -1.14009796    -0.62411277    -0.38189120
O      -5.89692376     6.90592362    -5.94835379     0.16807882     0.11720754     1.06407284
O      -5.98471320     2.11235408   -10.11539884     0.94136815    -1.44354223     1.12372836
O      -5.87133604     1.88513467    -5.83652044    -0.13007546     0.17878707     0.48819585
O      -9.99127295     6.97185124    -9.61661724     1.09680714    -0.22412662    -1.32252475
O      -9.70118690     6.81009320    -5.97870735    -0.16892796    -1.63100123    -0.45302693
O      -3.96658637     2.42156532    -3.97126144     0.73071082    -0.99731196    -0.00817473
O      -3.91933172     2.44833312    -7.92294989     0.50053672     0.40244414     0.12526450
O      -7.94646947     2.42252999    -3.97222777     1.54281763    -0.16802307    -0.27186292
O      -7.80827976     2.51805243    -7.93703002     1.07830419    -1.29873930    -0.30075258
O      -3.85677804     6.28875693    -3.96104756    -0.03671395     0.13776084     0.54021943
O      -3.95707955     6.35704702    -7.93222393    -0.21173306    -0.20485603     0.67370657
O      -7.68430553     6.29618676    -3.87571283    -0.75204281     0.95837618    -0.55418459
O      -7.82672211     6.39655799    -7.91385982    -0.06897237    -0.41106001     0.03794955
O      -3.84542972     4.29098287    -1.95573902    -0.44168747     0.18011568    -1.11099167
O      -3.82393006     4.33899140    -5.86786117     0.15107974     0.31998634     0.37797261
O      -7.95676365     4.40356601    -9.98769298     0.00029805    -0.12596726     0.56841674
O      -7.95921834     4.45650075    -5.97003277     0.23726095     0.21181399     2.52370114
O      -7.94894998     8.67268562    -9.89107539     0.09864663     0.78189219    -0.63373436
O      -3.99337924     0.04142602    -6.09216621     0.54186288    -0.18411822     0.54017704
O     -11.52941605     8.60510802    -6.02643510    -0.13168267     0.71310781     0.13297640
O      -7.69507109     0.16654316   -10.09394220    -2.49688971     0.15056964     0.10301497
O      -1.86439570     4.10282752    -3.95723720    -1.21791446     1.85249593    -0.23866858
O      -9.83220820     4.59279827    -4.13515449     0.48927060     0.22338757     0.72020182
O      -5.91054178     4.35199997    -4.03237239    -0.51599322     0.01469499    -0.13059250
O      -5.81734716     4.39259653    -7.95639592    -0.62971395     0.25121277     0.37778011
O      -1.78226803     0.26558765    -4.03697454    -0.67419473    -0.38408006    -0.41918201
O      -5.83532730     8.50689781    -7.98855992    -0.07233064    -0.27953441     0.31063273
O      -9.69534552     8.22921868    -4.03921874    -0.16974228     2.11870186     0.21498019
O      -5.81475017     0.57426315    -8.05353294    -0.55497574     0.04139574    -0.84526235
