# total energy = -629.91291132 eV

CRYSTAL
PRIMVEC
        0.00285542     0.02004370    -7.95977623
       -7.82940539     0.00763210    -3.98158109
       -3.91729101     8.74642787     0.01461334
PRIMCOORD
56 1
Li     -3.94742729     2.11205447    -1.94190032    -0.14521230     0.68425901     0.07427183
Li     -3.96347124     2.29122869    -5.94595833    -0.36649702     0.12122061    -0.42680561
Li     -7.94544252     2.08558648    -9.97168682     0.55807030    -0.10552220     0.10544254
Li     -7.63607735     2.53899561    -5.95175111    -0.83011490    -0.03446820    -0.03472267
Li     -3.79377123     6.21094222    -1.94882426     0.00266526     0.72595240     0.04375914
Li     -4.05379396     6.72807979    -5.73475018     0.54887509    -0.20861010    -0.50433388
Li     -8.01364958     6.73408990   -10.09717555     1.67345281    -0.59938756     0.54060494
Li     -7.69376486     6.26324079    -5.92080827    -0.70251678     0.47543789     0.22085072
Ti     -2.03021893     2.01262425    -4.01116205    -0.03338170     1.84059997    -0.39475739
Ti     -5.97049451     6.48895437    -8.10342430     0.90589412    -0.62587127     0.30132601
Ti     -7.93387821     4.29375265    -7.86748382    -0.28101715     0.21715385     0.61762948
Ti     -7.83699439     4.38288323    -3.70239126     0.02297089     0.27152465     0.37219424
Ti     -3.79920617     4.48175823    -7.71627533    -0.05458622    -0.58194676    -1.66942440
Ti     -4.00415274     4.35812612    -3.75269062     0.64783696     0.17585051     0.99225073
Ti     -1.82482215     0.03214833    -1.85232466     0.32123226    -0.05029812     0.14085000
Ni     -5.77895164     2.37241313    -8.03026829    -1.11991836    -0.81970334    -0.41532228
Ni     -5.98151046     2.20362153    -3.96400218     1.15333071     0.45256755    -1.23105232
Ni     -9.77234932     6.60793627    -7.94391041    -0.56333465     0.12665268     1.15249046
Ni     -9.76884070     6.59151920    -3.81835675    -0.05348488    -0.74429180    -2.18317078
Ni     -1.86330487     2.10880539    -7.95618257    -1.79139574     0.48773299    -0.10747369
Ni     -5.83377877     6.70352873    -3.92113976    -0.94394782    -0.65868640    -0.39020760
Ni     -5.91391589     8.67982076    -5.96855008    -0.67621937    -0.93280634     0.44378662
Mo     -9.76659939     8.74720488   -10.23665932    -2.32058396     1.81297794     0.82060232
Mo     -9.84214056     8.74303933    -6.24680410     3.00703701    -0.97205507    -1.18059401
O      -1.98264902     1.89585080    -2.02138707     0.39588275     0.36091288     0.75192820
O      -2.12804709     1.75570567    -6.03418917     1.46090638     0.41132938    -0.19311018
O      -5.92499555     6.75092226    -2.03108694    -0.11768650     1.20136465     0.49062980
O      -5.89360163     6.71228705    -5.76164366     0.32657857     1.86772687    -0.81764875
O      -5.94834011     2.13382460   -10.02735888     0.22036544    -1.22012047     0.47173226
O      -5.93079507     2.05739842    -5.97236989     0.95420130    -1.17637504     0.09069469
O      -9.76183725     6.92252016    -9.93507227    -0.60150356    -1.42030952     1.60033509
O      -9.80688942     6.76252843    -5.99610312    -0.10124728     1.35587478     0.07124649
O      -3.92340448     2.43744596    -4.01276389    -0.15160404    -1.14717211     0.35601441
O      -3.91723791     2.50963222    -7.99743369     0.53530666    -0.28209852     0.01720754
O      -7.86341315     2.38790639    -4.02766395    -0.21885580     0.65893163     0.49642806
O      -7.74716148     2.41920198    -7.97934751    -0.55452488    -0.56585374    -0.14827761
O      -3.95695937     6.30298320    -3.85055781     0.80276587     0.83902865    -0.84449888
O      -3.82743557     6.44376233    -8.01959133    -1.04156928    -0.37655554     0.94261878
O      -7.86627667     6.37162309    -4.02078213     0.45092935    -0.20309522     0.91784417
O      -7.84836415     6.43297647    -7.92560620     0.14347559     0.04071749    -0.48611169
O      -3.85795488     4.43855227    -1.97185620     0.05279316    -0.94677104    -1.18096058
O      -3.95876967     4.39317944    -6.02254772    -0.08057535     0.20762493     2.22110869
O      -7.83569732     4.47811183    -9.87856561     0.04407225     0.38570729    -1.33706283
O      -7.75911252     4.44398245    -6.08992639    -0.04785606    -0.27642748     0.06281076
O      -4.06279421     0.20533991    -9.95458867     0.09753284    -1.21366387     0.01554305
O      -8.01526658     8.72071988    -6.07733445    -0.96977612     0.10084250    -0.08437906
O      -7.78513522     0.06813803    -6.00844963    -0.76063415    -0.43591979    -0.30547642
O     -11.68412116     8.73049541    -9.90565618     1.01362635     0.23546183    -0.14850284
O      -1.96901117     4.02391120    -4.08524648    -0.46789943     0.30015087     0.01811890
O      -9.73903073     4.49691162    -3.94762836     0.58109889    -0.16361533    -0.23161474
O      -5.86459918     4.08513468    -3.94928687    -1.26129465     0.16753964    -0.26908136
O      -5.84591478     4.51101923    -8.15347151     0.10011784     0.71704337     0.60373984
O      -2.24994112     0.22485331    -3.94372355     0.86193291    -1.64129729     0.24005284
O      -5.71329193     8.47994813    -7.89843740    -0.88698220    -0.72283040    -1.26011075
O      -5.98505654     0.34153605    -4.08303298     0.19880707     0.29008642    -0.62932710
O      -5.94723153     0.40742492    -8.10817310     0.29708243     1.14427874     1.45421726
