# total energy = -630.74022695 eV

CRYSTAL
PRIMVEC
        0.00279571     0.02951795    -7.98606283
       -7.83802570     0.01298533    -3.99532603
       -3.92160916     8.71933433     0.00634407
PRIMCOORD
56 1
Li     -4.12690187     2.29688421    -1.85813952     0.88742265     0.25310792     0.00189141
Li     -3.84942262     2.09670111    -5.92555238    -0.74400706     0.19238614    -0.70367652
Li     -7.75338557     2.40638875    -9.96854628    -0.36999658     0.21611875     0.06942289
Li     -7.79504776     1.82061803    -5.86043551    -0.09541669     0.18519651     0.00812660
Li     -3.85813626     6.50363298    -2.03442867    -0.28292765    -0.17203245     0.27883195
Li     -3.86536200     6.50940782    -5.83938363    -0.94984121    -0.05452849    -0.13611604
Li     -7.85889011     6.39865931   -10.02815425    -0.19143893    -0.11573165     0.05465651
Li     -7.84025903     6.37150537    -5.90880007     0.44257190     0.27312195    -0.33482604
Ti     -1.94543532     2.14604022    -4.05060376     0.04319350    -0.06862790     1.00939637
Ti     -5.89364895     6.66214941    -7.98756266     0.33756813     0.19293242     0.31084244
Ti     -7.83066829     4.32756309    -7.67309138     0.45440799    -0.09241047    -0.96921079
Ti     -7.83978814     4.32943320    -3.83681686     1.09776309    -0.09185114     2.15501289
Ti     -3.81159395     4.53018169    -7.65145671    -0.68107423    -0.69011173    -1.34436366
Ti     -3.89046259     4.34772852    -3.76922747    -1.60431192     0.98034339     1.26270033
Ti     -6.22238634     8.65507731    -2.05346421     0.75650252     0.18832482     0.88237559
Ni     -5.85610696     2.38648111    -7.99389545     0.05066214    -0.39816492     0.19274128
Ni     -5.78808245     2.15901825    -4.08282658    -1.71505529     1.21180633    -0.00240714
Ni     -9.80248806     6.56282377    -7.94443546     0.06360187    -0.06850557    -0.11925640
Ni     -9.71383645     6.53450544    -4.14004246    -0.87692934    -0.46969565     1.19430446
Ni     -1.93786061     2.27159670    -7.96941597    -0.55653144    -0.05142676    -0.09563067
Ni     -5.90322865     6.64126961    -4.02360754     0.41837268    -0.30539507    -0.45307208
Ni     -2.06245986     0.02787759    -5.86697971     0.73255623    -1.73388124    -1.01807081
Mo    -10.00967187     8.75275543   -10.21001948    -0.00932435     0.00854432    -0.04751421
Mo     -9.71902646     8.58592869    -6.39080148    -0.45997632     0.34572155    -0.16820246
O      -1.95633860     1.83353819    -1.84634874     0.16368872     0.31730737    -0.52953535
O      -1.93063478     1.81596975    -5.90121654    -0.19118722     1.19905593    -0.76561111
O      -5.81275471     6.72894016    -2.15757307    -0.74002668     0.38413326     1.17313986
O      -5.92231191     6.83558543    -5.99864322    -0.18785227     0.71259593     0.50616859
O      -5.93625686     2.07451306   -10.01525621     0.27927105    -0.98661038    -0.20392279
O      -5.85044197     2.00386939    -6.05252775    -0.05566157    -0.78675887     0.35831662
O      -9.93231133     6.89053321    -9.85398322     1.59259409     0.75486918     0.11193140
O      -9.70724779     6.64264100    -6.02952050     0.20108250     0.90516147    -0.61523605
O      -3.95696560     2.39636064    -4.05911686     1.46718652    -0.61714406     0.42655281
O      -3.87065052     2.60524522    -7.86691942     0.02855415    -0.82883934    -0.31963785
O      -7.87352677     2.42480060    -3.90656737    -0.14378880    -0.85985899    -0.70798653
O      -7.87210125     2.27950704    -7.93832599     0.52986226     1.48206762     0.07945150
O      -3.84424744     6.34803403    -3.94091831    -0.32546823    -0.09179203    -0.13523360
O      -3.85677396     6.53972536    -7.86892971    -0.67684894    -0.88517753    -1.04525038
O      -7.84554662     6.27545434    -4.07001835     0.46718412     1.24872381     0.69035018
O      -7.87471380     6.33700490    -8.06661336     0.48490869    -0.16994557     0.86637252
O      -3.97277927     4.39612869    -1.98406859    -0.04029190     0.13245113    -1.03006773
O      -3.99964669     4.58066598    -5.94192492     0.42263557    -0.09028464     1.36314994
O      -7.79968776     4.54408218    -9.95280464    -0.55172680    -1.04835995    -1.75902001
O      -7.82345827     4.50318578    -5.93756839    -0.25075981    -0.35442761    -0.47295677
O      -4.06223810     0.10638698    -9.98443463    -1.35568065    -0.54948173    -0.41875125
O      -3.98759906     0.12995512    -6.09031346     0.07583517    -1.01164284     0.36740937
O     -11.48355358     8.56009949    -6.03263248     0.47146015     0.63582211    -0.00954514
O      -0.01895564     0.03534286    -6.07535761     0.20177498     0.13095704     0.15554760
O      -1.98583633     4.07464536    -4.01020094     0.89486464    -0.22818545     0.02743080
O      -9.83873289     4.48993703    -4.17622048     1.41748551     0.23205624     0.71128831
O      -5.86969512     4.04047132    -4.02593685    -0.13873360     0.32549698    -0.24416428
O      -5.89038634     4.38965519    -7.90040804    -0.15621285     0.16116838    -0.38783340
O      -1.89780995     0.18135454    -3.82776318    -0.14458183     0.43611032    -1.67469443
O      -5.92685602     8.47001189    -8.13440197     0.06094475    -0.42798750     0.81489860
O      -5.84014220     0.27104459    -4.04294493    -0.03465542    -0.47254068     0.29254269
O      -5.81376123     0.48491925    -8.16900258    -0.31972884     0.76742335     0.30489440
