# total energy = -630.47519808 eV

CRYSTAL
PRIMVEC
        0.00285542     0.02004370    -7.95977623
       -7.82940539     0.00763210    -3.98158109
       -3.91729101     8.74642787     0.01461334
PRIMCOORD
56 1
Li     -3.96452265     2.56446264    -1.98670087     0.11019117    -0.32955606     0.56262803
Li     -3.80776285     2.51868760    -5.90360542    -0.39937372    -0.16379271    -0.31499951
Li     -7.96050462     2.29799860    -9.92733685     0.25322515    -0.26927494     0.03771563
Li     -7.61971632     2.03077610    -5.84032778    -0.70072517     0.45774452     0.00771144
Li     -3.86752109     6.71804132    -2.12578743    -0.37842607    -0.32433600     0.67397936
Li     -4.08745291     6.54488055    -5.72535182     0.81919706    -0.13707909    -0.82888341
Li     -7.81342756     6.43437471    -9.86651439    -0.47330789    -0.05861833     0.09194618
Li     -7.92720236     6.48864248    -6.02688863     0.55742171     0.23086933     1.23628840
Ti     -1.86030150     2.12180479    -3.81276898    -0.15538014     1.04709055    -1.15206013
Ti     -5.80770879     6.74006762    -7.84640732     0.20585452     0.21462004    -0.66359191
Ti     -7.87807045     4.44445524    -7.70738669    -0.04707905    -1.59603461     0.89555708
Ti     -7.74756388     4.26789459    -3.71966981    -1.23526971     1.04904598    -0.75933151
Ti     -3.78075037     4.50270817    -7.77138317     0.55838917    -1.53735856    -0.28832439
Ti     -4.08429742     4.42115563    -3.77686311     0.96233664    -0.06086818     0.45527805
Ti     -6.15046415     8.67718853    -2.08323006    -0.32183877    -1.03353615     0.39690187
Ni     -5.90507042     2.46469840    -8.00812140     0.82285063    -0.02625998     0.01372538
Ni     -5.80033895     2.05394086    -4.01543161    -0.25923451     0.00578026     1.11733233
Ni     -9.79832517     6.57512368    -7.90838851    -0.12623653     0.18596180    -0.03093880
Ni     -9.75545924     6.56459196    -4.06970415     0.73432349    -0.97959858     0.99652718
Ni     -1.98378091     2.00495288    -7.98578239     0.20616256     0.29737559     0.48172670
Ni     -5.94751700     6.70247261    -3.90899365    -0.34962379    -0.77939185    -1.78359679
Ni     -2.07242436     0.03321708    -5.95258118     0.08257702    -0.63037444    -1.17296636
Mo     -5.98839358     0.03491929   -10.16511220    -0.56014060     0.40337132    -0.04880619
Mo     -9.73382396     8.73383470    -6.40075777     0.56395188     0.80434349    -0.19609781
O      -1.87913327     1.82723034    -1.98132758    -0.38003676     0.82959729     1.00259338
O      -2.05730689     1.87141621    -6.14485095     0.26728363    -0.52533668     0.65070526
O      -5.92143568     6.75769499    -2.10435108     0.66601543     0.15516849     1.78881949
O      -5.94818733     6.84770484    -5.99333458     0.10317037     0.28987691     1.22346159
O      -5.76579917     1.95725859   -10.06242880    -0.56186344     0.13601325    -0.57869336
O      -5.73869252     1.85876234    -5.83946785    -0.00794048    -0.01949653    -0.04208657
O      -9.76757144     6.93052951    -9.78971521    -0.12948003    -0.35030867     0.91473131
O      -9.76799515     6.83479822    -5.98034230    -0.04520330    -0.36986325    -0.72363059
O      -3.89939832     2.39704701    -3.90852191    -0.31652524     0.43947687    -0.28172961
O      -3.92296572     2.56246400    -8.03259911     0.10907417     0.13373070     0.19608739
O      -7.86660532     2.33938489    -3.86776923     0.32837153    -0.73977041    -0.73513295
O      -7.80889475     2.34161461    -7.82252694    -0.00220269    -0.00738296    -1.30677924
O      -3.83315664     6.39596987    -3.95179360    -0.30532346    -0.24358425     0.04854047
O      -3.89323985     6.42685924    -7.91075611    -1.18300924     0.84517365    -0.33433043
O      -7.86464646     6.36344813    -3.78997468     0.64299459    -0.41460027    -1.26407416
O      -7.84835442     6.36225700    -7.84884564     0.07706936    -0.20081245    -0.85266166
O      -3.94649518     4.51661768    -1.97393698    -0.03691132    -0.15417086    -1.46221364
O      -3.79044595     4.48722728    -6.02936981    -0.29240998     0.03629496     1.32057227
O      -7.88835089     4.18163186    -9.92157511     0.69314301     0.47682909     0.82175496
O      -7.88128684     4.05774205    -5.96073919    -0.46981570     1.27873547    -0.75784988
O      -7.89381061     8.69239211    -9.67566967    -0.46033956     0.21421278    -1.00015013
O      -7.85738809     8.67126642    -6.22563075    -0.54152822    -0.08890394     0.36610659
O      -7.63564981     0.02319231    -6.18822787     0.52984280    -0.49901535     0.47595073
O      -7.77130701     0.04682316    -9.90655932     0.01876301     0.10101418    -0.34198325
O      -1.98307752     3.99587493    -4.12509526    -0.13684810     0.38187539     0.71180320
O      -9.66420444     4.72884382    -3.97307998    -0.95751415    -0.35244860    -0.46291950
O      -5.90458018     4.43152426    -4.25856690     0.56755196     0.33971623     1.04481734
O      -5.93212763     4.37404125    -7.84429354     0.61752981     0.56303653    -0.64290099
O      -2.14566540     0.15936210    -3.97306582     0.20028336     0.56669154    -0.10310816
O      -5.74615522     8.56137578    -8.09719531     0.09479602    -0.80986237     0.38514443
O      -9.69480464     8.36279224    -3.96088059    -0.15677637     1.38859430    -0.56927477
O      -5.85630531     0.61531793    -8.14292390     0.00452666    -0.06655691     0.73100630
