# total energy = -630.98829161 eV

CRYSTAL
PRIMVEC
        0.00285542     0.02004370    -7.95977623
       -7.82940539     0.00763210    -3.98158109
       -3.91729101     8.74642787     0.01461334
PRIMCOORD
56 1
Li     -3.91250808     2.21848825    -1.77938831    -0.29470168     0.29942467    -0.45477969
Li     -3.93070005     1.87441986    -6.02179225     0.05444479     0.41218138     0.32075604
Li     -7.67660111     2.40030494    -9.91436668    -0.65819870    -0.09021203     0.01677406
Li     -7.76181138     2.31965791    -5.91701152    -0.40202299    -0.03119603    -0.15450333
Li     -3.85859403     6.40318430    -2.04314494    -0.05358783     0.10075596     0.12239654
Li     -3.96744261     6.36301643    -6.03509983     0.27318756     0.82570781     0.74066701
Li     -7.82679830     6.47905165    -9.89183119     0.22339892     0.04055439    -0.34328138
Li     -7.81755189     6.57190511    -5.90835625     0.20843074    -0.05300324     0.02525887
Ti     -2.02899099     2.25671259    -3.98997860    -0.63069401     0.13840203    -0.86769183
Ti     -5.83191011     6.82729546    -8.00133574    -0.23014989     0.47959609     0.00563392
Ti     -7.85371009     4.35096562    -7.81648597     0.85295976    -0.12060773     0.72894364
Ti     -7.86424161     4.40814709    -3.79612699     0.15029339     0.11925389    -0.00205206
Ti     -3.88623213     4.35299750    -7.68204270    -0.26453205    -1.85673465    -1.33344273
Ti     -4.13737687     4.50750259    -3.90379191     1.84414646    -0.77077602     0.63765635
Ti     -2.13656687     0.09660063    -2.11485981    -0.74473353    -0.94910609    -0.85426354
Ni     -5.93169955     2.24245940    -7.84146893     1.27623194     1.60454044    -1.33477639
Ni     -5.92501294     2.30852448    -3.91490563     0.99620889    -1.23135034    -1.72409752
Ni     -9.70729062     6.30916239    -8.02216194    -0.52718387     0.63489706     0.86990956
Ni     -9.74777112     6.30134816    -3.94608628     0.05188511     0.33817878    -0.19107485
Ni     -1.81165048     2.18521794    -7.93812501    -1.88458517     0.13767843     0.17321166
Ni     -5.82845626     6.60278466    -4.01198234    -0.49855992     0.91449187     0.04421510
Ni     -1.90170450     0.02127672    -5.90897116    -0.29128581    -0.23944797    -0.51390058
Mo     -5.98323839     0.04940750   -10.14485089     1.60312820     0.51584177    -1.10871368
Mo     -9.83538297     8.66165407    -6.19026685    -0.68078911    -0.64177205    -0.26732886
O      -1.93945207     1.96745714    -1.99876816     0.13665532     0.26222294     0.39173692
O      -1.88683379     1.79451718    -5.94215239    -0.03033277     1.37584703    -0.56277229
O      -5.86728166     6.86155551    -2.08209534     0.11592218    -0.34105804     0.60942282
O      -5.88062900     6.93565376    -5.94720330     0.55741048    -0.67745490     0.07106183
O      -5.83626554     2.03978990    -9.92476345    -0.29600263     0.17928946     0.49502965
O      -5.95695405     1.91786131    -5.90988641     0.54627606     0.67662269     0.18216143
O      -9.71298916     6.96363065    -9.84915687    -0.26443400    -0.70610378    -0.20298615
O      -9.73163902     6.76230118    -5.80305942    -0.59360161     0.49456982    -0.73665082
O      -3.94645395     2.45120035    -4.05669509    -0.13813537     0.18073226     0.11267542
O      -3.93023213     2.39316560    -7.85960848     0.43334013     0.43271476     0.12343088
O      -7.83173430     2.40764874    -4.04035900     0.85464898     0.38677695     0.66591895
O      -7.86464022     2.34941498    -7.93257738     0.25691386     0.79909442     0.08571703
O      -3.84134879     6.48775531    -4.03536134     0.05529298    -1.22956099    -0.06554284
O      -3.90864065     6.29837739    -7.95767037    -0.44892557     0.45726719    -0.23952188
O      -7.82942745     6.38354440    -3.93167832     0.01922067    -0.65027309    -0.03387438
O      -7.68440552     6.41035221    -7.94960795    -0.57325438    -0.63249434    -0.44071703
O      -3.94440933     4.40158627    -2.15791219     0.19229386     0.43073455     0.43814204
O      -3.57349851     4.56365800    -5.97330604    -0.58855595    -0.31358060     0.43594755
O      -7.88593040     4.40706287    -9.96619548     0.20412773     0.31901825     0.01000775
O      -7.80984393     4.53807116    -6.06627566     0.02395320    -0.22133074    -0.14931432
O      -4.02187165     0.15749620    -9.85789242     0.91847794    -0.36542280    -0.42218253
O      -4.13310033     0.02237071    -6.01376231     1.28578893    -0.56604231    -0.05954001
O     -11.65958542     8.69660639    -6.07246519    -0.28536563    -0.16160661     0.41978135
O      -7.72285937     0.09543764   -10.08159080    -1.16376815    -0.38643337     0.45477584
O      -1.97092301     4.11970033    -4.03262251     0.56209241     1.20852110     0.09654611
O      -9.70657006     4.19975153    -4.21278746    -1.12484968     0.19707185     0.63528544
O      -5.93401625     4.18840170    -4.12355941    -0.96328852     0.10395536    -0.05345226
O      -5.80713862     4.13593453    -8.00035594    -0.36917952     0.71701938     0.55566756
O      -2.15495625     0.30669272    -4.01926667     0.52742614    -0.84249048     0.84186969
O      -5.86299521     8.65270086    -8.08408178     0.46498403    -0.45011774     1.00172759
O      -5.83163451     0.35868587    -4.02286791    -0.26736625     0.01122613     1.06678810
O      -5.88645372     0.44863600    -8.00573193    -0.38340159    -0.73018133    -0.25114778
