# total energy = -630.84465039 eV

CRYSTAL
PRIMVEC
        0.00285542     0.02004370    -7.95977623
       -7.82940539     0.00763210    -3.98158109
       -3.91729101     8.74642787     0.01461334
PRIMCOORD
56 1
Li     -3.83460739     2.45499797    -1.93347520    -0.39943856    -0.53784796     0.15745082
Li     -3.82719789     2.23769389    -6.02867236    -0.37296896    -0.22465272     0.20770268
Li     -7.72292968     2.29532785   -10.02067693    -0.60325690     0.32780472     0.10476959
Li     -7.67976149     2.27603528    -6.05175409    -0.16148341    -0.34065834     0.40468176
Li     -3.91370975     6.40019802    -1.89565727    -0.20925464     0.14715249    -0.68830882
Li     -3.85413362     6.32250331    -5.88554757    -0.03741106     0.02729819     0.28415272
Li     -7.88626200     6.31657931    -9.89888012    -0.05708312     0.21601987     0.17714215
Li     -7.82414173     6.69592462    -5.68437363     0.07241197     0.01373938    -0.96483229
Ti     -1.88165408     2.20631942    -3.94909786     0.15883974    -0.30313391    -1.39194213
Ti     -5.78290466     6.81597932    -7.84315918    -1.23045415    -1.15040353    -0.51893728
Ti     -7.92678981     4.47410547    -7.70862107     0.53625563     0.09591673    -1.06505764
Ti     -7.80242701     4.38183673    -3.80532720    -1.00414751     0.12939118     0.68485197
Ti     -3.92379401     4.31783166    -7.73778611     0.80250306    -0.71851236     0.29787023
Ti     -4.07018656     4.22745584    -3.77635090    -0.08210276     1.02023189    -1.35431665
Ti     -2.22556755     0.02728220    -2.00531359    -0.02376274    -0.29803362    -0.56248515
Ni     -5.88555436     2.43201613    -8.03265750     0.94215267     0.51029852     0.17618013
Ni     -5.90817502     1.99057160    -4.08891494     1.10447065     0.02166004     0.48976800
Ni     -9.90903781     6.51512472    -7.84037654     0.05155681     0.27267587    -0.23507141
Ni     -9.77966744     6.59564411    -4.02322833    -0.56655313    -0.31016755     1.21546192
Ni     -1.79166081     2.07240067    -8.04642206    -0.79113707     0.45801224     0.91428783
Ni     -5.92447763     6.63217197    -3.98729134     0.84220542     1.16742702     1.16568679
Ni     -1.89684932     0.03045932    -5.93117227    -0.40023444     0.00272393     0.06187621
Mo     -9.91703512     8.76997408   -10.08226439     1.16823838    -0.11915216    -1.21017052
Mo     -9.70533382     8.64162179    -6.36976678    -2.21536664     1.64249712     0.17620510
O      -1.92661153     2.00029475    -2.06551796     0.44730199    -0.09277360     1.34491778
O      -1.96394899     1.84622890    -6.06379701     0.77911295    -0.09313158     0.00262859
O      -5.96863850     6.88268756    -1.91068380     0.16872156    -0.76057980    -0.29611253
O      -5.76613535     6.90085794    -5.89599699    -0.75427199     0.05577634    -0.18468133
O      -5.87739568     2.01158648   -10.16134130     0.30704866    -0.27307684     0.31526428
O      -5.82032748     1.91374596    -5.90441107     0.30958392     0.04315552    -0.43808224
O      -9.78909184     6.85309735    -9.84421346    -0.06563635     0.54644993     0.60922097
O      -9.79886745     6.80826294    -5.88558728     0.28446238    -0.88449673    -1.28726874
O      -3.88784872     2.29099193    -3.97823585    -0.57749587     0.54814939    -0.09210935
O      -3.83160839     2.39699596    -7.95033233    -0.09040065     1.09996886    -0.45517028
O      -7.74087499     2.38854447    -4.02644736    -0.71726281     0.42560812    -0.03599321
O      -7.75358910     2.35877226    -8.08838059    -1.27210066     0.99068193     0.88769589
O      -3.89882910     6.31758561    -3.96284201     0.03164973    -0.05507614     0.27865990
O      -4.01446443     6.27755796    -7.96611012     0.54322281     1.30758589     0.29640153
O      -7.93453367     6.50235210    -3.88055899     1.13629676    -1.10466725    -0.25685205
O      -8.00876992     6.38704171    -7.83328762     1.50364294    -0.48039863    -0.13379541
O      -3.84751439     4.44932809    -2.06564244    -0.14899087    -0.52911485     1.24794550
O      -3.86327623     4.41879306    -5.96896402    -0.03421556    -0.31565928    -0.36650460
O      -7.87496659     4.34122485    -9.97745544    -0.05842211    -0.02754526    -0.57550630
O      -8.03702308     4.23065216    -5.99756261     0.57073667     0.05092288     0.51530819
O      -4.02541627     0.13201110    -9.84112082     0.13527493    -0.27557590    -0.27466379
O      -7.91946812     8.72432315    -6.08172703     1.04897461    -0.37704693     0.37541986
O     -11.49282752     8.74231515    -5.92049807     0.41857096     0.03516317    -0.84989923
O      -7.72959456     0.03180335    -9.79797638    -0.78916789     0.10484533    -0.58825373
O      -2.06990855     4.10428392    -4.11239408     1.22440192    -0.15011592     0.35694102
O      -9.76173410     4.73098007    -4.12707101    -0.21696085    -0.20252215     0.62620039
O      -5.90220480     4.77422869    -3.99028603    -0.72847881    -0.44137867    -0.51712440
O      -5.90407902     4.36709982    -7.92357499    -0.30218001    -0.09126943    -0.14624364
O      -1.97864334     0.21135550    -3.84169067    -0.01176529    -0.64565259    -1.17410618
O      -5.72670051     8.58569275    -8.03627877     0.02058274     0.83166105     0.89802330
O      -9.76649086     8.64441491    -4.03173169    -0.17130162    -0.08543780     1.86762167
O      -5.76951624     0.65210819    -8.10019997    -0.50765646    -1.08466826    -0.39617726
