# total energy = -631.17436443 eV

CRYSTAL
PRIMVEC
        0.00279571     0.02951795    -7.98606283
       -7.83802570     0.01298533    -3.99532603
       -3.92160916     8.71933433     0.00634407
PRIMCOORD
56 1
Li     -3.93015115     2.41304009    -1.97199601    -0.28389052    -0.06436681     0.16824366
Li     -3.91392013     1.99640370    -5.92060434    -0.21927166    -0.00847613    -0.27796525
Li     -7.77758833     2.35052676    -9.81972624    -0.42785000     0.31717612    -0.53879390
Li     -7.83900483     2.27620125    -5.90650038     0.24458529     0.07832080    -0.05991057
Li     -3.89427638     6.74261721    -1.95000452    -0.32972261    -0.86388172    -0.23873768
Li     -3.92136134     6.40455166    -5.80678950    -0.05833416     0.60219704    -0.21544058
Li     -7.91242714     6.43765691   -10.01312619     0.12165173     0.12908822     0.27416513
Li     -7.82089271     6.68051392    -6.01313511     0.11450108     0.01519481     0.80207271
Ti     -1.94959763     2.01786921    -4.01511702    -0.00969981     0.60008109    -0.06781266
Ti     -5.84143055     6.43707921    -7.94512914     0.18309373     0.54904043    -0.91334257
Ti     -7.99583762     4.42211435    -7.70298441     0.57260452     0.35750232     0.66966051
Ti     -7.79462460     4.35474318    -3.82204869    -0.09623713     0.84776933     1.50879268
Ti     -3.77631607     4.36926465    -7.64373890    -0.02955551    -0.45146590    -0.91708726
Ti     -3.92453889     4.36998363    -3.78455704    -0.48463955     0.41537840     1.63110140
Ti     -2.20177047     0.08829255    -1.90186498    -0.43683170    -3.06054501     0.12840381
Ni     -5.90462996     2.44477088    -8.01296025     1.11667840    -0.37326242     0.01817568
Ni     -5.96426763     2.20079665    -4.01744314     0.66641775     0.30229885     1.32323822
Ni     -9.85049401     6.60971107    -7.99030340     0.22640498     0.50528082     0.56380032
Ni     -9.81049447     6.47860116    -4.03106992     0.67691967     0.43042046    -0.50382940
Ni     -1.86133278     2.08263272    -7.90935431    -0.78355200    -0.06855385    -0.06481526
Ni     -5.88144543     6.52477328    -3.94580459     0.38333946    -0.01145044    -0.15089348
Ni     -1.85688121     0.03677250    -5.92589012    -0.94449311    -1.60187666    -0.92328396
Mo     -6.02398225     0.10397260   -10.41305100    -0.28410586     0.95491400     0.83952267
Mo     -9.78739057     8.71038119    -6.38372130     0.29333974     0.71732566    -0.59086861
O      -1.97983167     1.89101352    -2.04392061     0.48306683     1.84695190     0.97096117
O      -1.91551454     1.89456746    -5.95710272     0.08041251     0.00015714    -0.46440233
O      -5.93738355     6.81591070    -1.99699856     0.17591175    -0.24916382     0.21661216
O      -5.79539838     6.88348526    -5.94894370    -0.26426291     0.32965277    -0.25192292
O      -5.97844971     1.98140481    -9.98997275     0.94720058     0.23612684    -1.61520097
O      -5.86484348     1.94304740    -5.79856370    -0.23096528    -0.70838993    -1.43077078
O      -9.89009321     7.00663091    -9.92128434     0.54575046    -1.27401968     1.02942893
O      -9.77470800     6.83263802    -6.08172034     0.12905962    -1.32435158    -0.02262556
O      -3.98030214     2.40157990    -4.01615477     0.61660724    -0.48203154     0.18426499
O      -3.81598971     2.49781882    -8.02243644    -0.40914195    -0.29180816     0.78557829
O      -7.84533277     2.42197952    -3.96452458     0.04194528    -0.92285709    -0.38975590
O      -7.82446907     2.44997612    -7.86020029    -0.54258119    -0.32799139    -0.57578857
O      -3.86485668     6.36081534    -3.91268222    -0.38443511     0.06906116    -0.09025663
O      -3.92508805     6.33229831    -8.04419164    -0.53151421    -0.02056728     0.45026153
O      -7.78759904     6.33920484    -3.97960244    -0.57317474    -0.15902434    -0.09366481
O      -7.94175260     6.43917159    -7.89607494     1.03398696    -1.11521170    -0.85042126
O      -4.03473535     4.34961458    -1.99957161     0.28415208     0.03975877    -0.86090089
O      -3.99054973     4.58191078    -5.91069031     0.23525659    -0.73061997    -0.14667997
O      -7.81607870     4.28457945    -9.98435123    -0.05086301     0.55103689    -0.26008059
O      -7.74535538     4.32912482    -5.93354700    -0.37238739     0.05382112    -1.07294017
O      -7.92659162     8.70513182    -2.16201341    -0.58200384     0.56029197     0.37945694
O      -7.94569263     8.63267987    -6.02100701     0.24511630     0.91371385    -0.24411008
O     -11.56267512     8.55855461    -6.06331124    -0.18115995     1.66687024    -0.24259015
O      -7.82279135     0.06972099   -10.21592538     1.21142047     0.39039711     0.20297955
O      -1.97486272     4.16062342    -3.92142460    -0.41777383    -0.51735688    -0.46049541
O      -9.78046220     4.61810967    -3.96663865     0.24467573     0.09825802    -0.21001794
O      -5.87801895     4.48940606    -4.04353059    -0.14723399     0.33905350     0.06114667
O      -5.88111972     4.44532560    -8.01060478    -0.21614446     0.58963567     0.37629968
O      -1.86202076     0.16390373    -3.95005529    -0.14721392     0.06332044     0.08826461
O      -5.73253794     8.45707262    -8.07720216    -0.81729850     0.11414697     0.34290228
O      -9.76029995     8.37956784    -4.17896478    -0.26210448    -0.20295182     0.78657998
O      -5.81562668     0.56228829    -8.17676793    -0.38746732     0.19778760     0.97566903
