# total energy = -630.40629274 eV

CRYSTAL
PRIMVEC
        0.00279571     0.02951795    -7.98606283
       -7.83802570     0.01298533    -3.99532603
       -3.92160916     8.71933433     0.00634407
PRIMCOORD
56 1
Li     -3.89686538     2.13767329    -1.88301006    -0.66920279     0.32270667    -0.06210930
Li     -4.10603044     2.33211923    -5.92722321     0.86889815     0.08875570    -0.02091668
Li     -8.00606491     2.49366684    -9.94055436     0.98585685    -0.33305834    -0.04797967
Li     -7.87692328     2.35184007    -5.96370555     0.10279666    -0.20727706     0.64210245
Li     -3.76895364     6.47045431    -2.06915867    -0.65353723     0.22198161     0.40965449
Li     -3.88261764     6.61276366    -5.90425386    -0.21505447     0.02681890    -0.21552240
Li     -7.84327582     6.53528052   -10.06473573     0.14977212     0.08694890     0.52416934
Li     -7.96942153     6.35751937    -5.79204885     0.32092297    -0.19288808    -0.97895299
Ti     -1.98911057     2.18143726    -3.96301662    -0.31010424     0.94520515    -0.26701260
Ti     -5.93010079     6.76712208    -7.94029825     0.29958631    -0.84841482    -0.80604367
Ti     -7.68360992     4.31524732    -7.78156769    -0.48739087     0.09806426     0.00527932
Ti     -7.97773126     4.46219143    -3.72113637     0.56971541    -0.48474973     0.78020749
Ti     -4.08750005     4.30537603    -7.69596234     2.08928282     0.55367306    -1.55655612
Ti     -4.05558083     4.38866802    -3.76608317    -0.12316086     0.54645722    -0.49586025
Ti     -1.82208170     0.03073019    -2.03031093     1.78695496    -0.38966997    -0.86553926
Ni     -5.86492845     2.06909451    -7.95269036    -0.70540649     0.09374375     0.82479522
Ni     -5.91619909     2.25932203    -3.85824104    -0.41187353     0.51763898    -0.92093118
Ni     -9.75366741     6.29288786    -8.06808549    -1.00084613     0.58042285     0.07534751
Ni     -9.81518544     6.70081889    -4.03078370    -0.13284138    -0.29586902     0.65657479
Ni     -1.97503792     2.28973855    -7.92788467    -0.64913235    -0.80110118    -0.26042421
Ni     -5.91647531     6.60732291    -4.09935569     0.51930606     0.06704085     0.78714866
Ni     -1.99362626     0.06838156    -6.00389679     0.59459540     0.99649776    -0.20109254
Mo     -9.77314761     8.67019960   -10.31494354    -1.63270325     0.68894707     0.66465576
Mo     -5.68980993     0.11294686    -6.34476835    -1.68015077     0.27091876     0.89575919
O      -2.07743055     1.93075339    -1.95615017     0.51228704     0.92147247    -0.40939510
O      -1.93106175     1.95056948    -6.05551294    -0.34699814    -0.65201909     0.51436868
O      -5.82849844     6.85763062    -2.05829222    -0.33595583    -0.54631037     0.01836676
O      -6.05112175     6.92203981    -6.01335880     0.75789543     0.05949576     0.45107330
O      -5.88489909     1.90803879    -9.79881617     0.15787499    -0.93096069    -0.99207489
O      -5.94014942     2.02240461    -5.97529949     0.26656039    -0.86627869    -0.57929240
O      -9.82336484     6.72193971   -10.08730928     0.13853063     0.26271892    -0.45148174
O      -9.76998051     6.88473487    -5.88230009    -0.29604784     0.08235632    -0.03899473
O      -3.89072750     2.42566196    -4.03441694    -0.20355061    -0.59074586     0.28904074
O      -4.07512181     2.30828707    -7.93972792     1.27792528     0.68750190     0.26483466
O      -7.90918110     2.49891843    -3.95660236     0.81526836    -0.19410116     0.39466642
O      -7.75751176     2.35526802    -7.92209580    -1.13768944     0.45094150    -0.52333464
O      -3.94168315     6.38442307    -4.03457189     0.13546809    -1.47791630     0.45313741
O      -3.94419946     6.37442768    -7.94965282    -0.26825063    -0.10380884    -0.03475149
O      -7.77888649     6.39023027    -3.97334068    -0.78381264     0.08317516    -0.17397585
O      -7.89980697     6.23179348    -7.92373263     1.14229200     1.65096168    -0.28979093
O      -4.03678904     4.10277352    -2.05910204     0.83244064     0.85308748     0.70178595
O      -3.99533949     4.29553653    -5.97691510    -0.43278682     0.08408514     1.04710945
O      -7.95160273     4.61870940    -9.90557943     0.24561956    -1.09669569    -1.24676096
O      -7.94149477     4.41486451    -6.02370794     0.37100980    -0.07293845     0.10205652
O      -7.95565772     8.56314597    -2.10541875    -0.70728339     0.69048787     0.31544514
O      -3.95513456     0.14740712    -6.11572889    -0.24040002     0.17306567    -0.15121672
O      -7.82590766     0.16176394    -6.01733393     0.04197769    -0.35952923    -0.19217508
O     -11.63543072     8.69919239    -9.89013640     1.00916057    -0.23790036    -1.05644617
O      -9.76056669     4.33488104    -8.07580441    -0.48769091    -0.26125338     0.27029051
O      -2.03003570     4.15604620    -7.87751922    -0.54748424     0.42418845    -0.73184351
O      -5.97180061     4.27321723    -3.99121670    -0.09938672    -0.63916824    -0.03839203
O      -5.81071495     4.62236216    -8.25225114    -1.98458671     0.86185917     1.00787877
O      -1.99455635     0.35279493    -4.04959860    -0.15265619    -0.62662475     0.50695163
O      -6.00802532     8.64946503    -8.07913925     0.34656889    -0.59204215     0.71801576
O      -5.86241693     0.19615158    -4.17178265    -0.26344787     0.46936057     0.90401419
O      -9.85592341     8.18609752    -8.00449936     0.62456094    -0.59749734    -0.67856590
