# total energy = -630.29094330 eV

CRYSTAL
PRIMVEC
        0.00279571     0.02951795    -7.98606283
       -7.83802570     0.01298533    -3.99532603
       -3.92160916     8.71933433     0.00634407
PRIMCOORD
56 1
Li     -3.89881134     1.98610186    -1.88228454    -0.41977614     0.62212473    -0.19981494
Li     -3.94192291     2.07836770    -5.97560735     0.20586958     0.38725586    -0.19706418
Li     -7.88369075     2.47629495   -10.15564670     0.17096731    -0.55513456     0.74399103
Li     -7.81622442     2.11096035    -5.88546332     0.09253123     0.35493309    -0.26495521
Li     -3.93935840     6.48008352    -2.00347006     0.32148885    -0.14141537     0.22146044
Li     -3.83227523     6.32411653    -6.04592539    -0.22125638     0.33869168     1.60104122
Li     -7.82778712     6.40951107    -9.99453943    -0.26069948     0.00769038     0.49156768
Li     -7.69349111     6.25505504    -5.88921760    -0.71199144     0.75942746    -0.10643721
Ti     -1.91534600     2.13707050    -4.03622846     0.71660201     0.63292258    -0.24479200
Ti     -5.87543792     6.60295824    -7.80639520    -0.13150156     0.64818012    -0.59975133
Ti     -7.90052097     4.39589176    -7.80479682     0.30936851     0.08519770     0.81315665
Ti     -7.76175933     4.46036384    -3.82638616    -1.28603227    -0.71786970     0.76653960
Ti     -3.75471898     4.42367854    -7.71726487     0.08097747    -0.84511498     0.08187917
Ti     -3.93732670     4.29920403    -3.69810761     0.35383175     1.19269998     0.49750727
Ti     -6.09534693     8.70379710    -2.15680181    -0.60246051    -0.72125619     1.40182727
Ni     -5.88595138     2.37020479    -8.04412666     0.57391051     0.62838424    -0.07490103
Ni     -5.92999152     2.24678818    -4.00768547     0.51570033     0.08595403     0.95414760
Ni     -9.91444888     6.76615615    -7.93541347     0.78965338    -0.60187161    -0.35719403
Ni     -9.78975438     6.55561184    -4.21122088     0.47500881    -1.16052157     1.04029587
Ni     -1.94584750     2.12449723    -7.99795124     0.29056204     0.08619996    -0.25419006
Ni     -5.82812097     6.44062605    -3.90782893     0.19497827     0.75233179    -0.41814456
Ni     -5.92901642     8.69754242    -5.96249527     0.64870599     0.11299785    -0.69438794
Mo     -9.92596886     8.70161277   -10.17717985    -2.36134790     0.91873423     0.72126889
Mo     -5.84288952     0.04355297    -6.33404266     1.51619252    -0.75592674    -0.64875403
O      -1.89917081     1.90731030    -1.99682978    -0.47438036    -0.27113245     0.18893463
O      -1.89216549     1.88838996    -6.12787469    -1.08939448    -0.51866556     0.94376010
O      -5.75426622     6.83104862    -2.01680897    -1.00563126    -0.60368614    -0.41054476
O      -5.85760561     6.82271821    -5.91079887     0.01416193    -0.13639019    -0.26672305
O      -5.91817295     1.91722853   -10.06611636     0.03126963     1.09680035    -0.51556875
O      -5.83961378     1.93307159    -5.80255039     0.28271053    -0.32172997    -0.71711734
O      -9.75837625     6.88471799    -9.77745149    -0.65085040    -0.22869177     0.17587761
O      -9.77108603     6.78678437    -6.14773188    -0.42963218     0.40605029     1.44732260
O      -3.97335431     2.41758799    -3.98311550     0.48598712    -1.02407246     0.16752915
O      -3.97670763     2.57478851    -8.06355083     0.24925483    -1.15851314     0.55106676
O      -7.79734394     2.46601764    -4.02272356    -0.63664118    -0.41404237    -0.16116269
O      -7.76684845     2.32288848    -7.90020094    -1.14898975     0.67234493    -0.74944692
O      -3.93830427     6.35918896    -3.95361188     0.46544078    -0.62961391    -0.17800081
O      -3.91470628     6.37411558    -7.84225911    -0.10753457     0.23758934    -1.27508673
O      -7.77021704     6.39554368    -3.94798557    -0.28164783    -0.34877559    -0.22655225
O      -7.92253557     6.33585170    -7.94539839     0.51909176     0.29828132    -0.28109831
O      -3.94201671     4.45556292    -1.91448395    -0.48942938     0.13932931    -1.36477567
O      -4.06599541     4.42589715    -5.94578871     0.83210420    -0.01249167    -0.74132601
O      -8.09284336     4.34920945   -10.01242887     0.90331983     0.45202447    -0.76084776
O      -7.88223894     4.38889269    -6.02373269    -0.37517100    -0.17549751     0.12043105
O      -4.06208916     0.09530958    -9.95519825     1.70617385    -0.36163824    -0.40836755
O      -7.82722853     8.55892328    -6.12972149    -0.95991097     1.21170885     0.37689716
O      -7.61639585     0.06311773    -6.18470933    -0.34784023    -0.38069860     0.26835702
O      -7.86558529     0.10442401    -9.89590114     1.88371669    -0.85715630    -0.65457308
O      -1.98570084     4.03048145    -4.02047054    -0.84120113    -0.19020586     0.00692822
O      -9.75091371     4.48089760    -4.16298051    -0.39496547     1.13784095     0.43278361
O      -5.89892809     4.33949049    -4.09027740     0.68318670     0.08391108     0.68969530
O      -6.02280510     4.48842852    -7.95258547     1.58404127    -0.03969046    -0.70092959
O      -2.07207172     0.24088747    -3.98165721    -0.00994217    -0.15396420    -0.43395429
O      -5.77675588     8.43279517    -8.13984278    -0.29045564    -0.02584151     0.31649546
O      -9.75002661     8.47080201    -3.94807759    -0.42238424    -0.21375433    -1.80789718
O      -5.63874589     0.54731254    -8.11947196    -1.02677985     0.14735788     0.79786647
