# total energy = -630.55657068 eV

CRYSTAL
PRIMVEC
        0.00279571     0.02951795    -7.98606283
       -7.83802570     0.01298533    -3.99532603
       -3.92160916     8.71933433     0.00634407
PRIMCOORD
56 1
Li     -3.81658244     2.29518482    -1.76421949    -0.55940561     0.02277205    -0.60986745
Li     -3.97923325     2.16479475    -5.89628264     0.27325105     0.05369790    -0.22103932
Li     -7.86198694     2.31569848   -10.01478265     0.36244632    -0.20518799     0.25058660
Li     -7.65174721     2.25877787    -5.94149167    -0.86536536    -0.40892314     0.09391689
Li     -3.89838191     6.41997160    -1.93736158    -0.20804530     0.08750494     0.14331223
Li     -3.92386101     6.64133510    -5.90418783     0.20134931    -0.16928121     0.03941868
Li     -7.75813303     6.37236549   -10.12137853    -0.54151230     0.03324549     0.54000540
Li     -7.69138200     6.47627134    -5.91637908    -0.70233093     0.18256510    -0.03875871
Ti     -2.02208463     2.21122340    -4.03121106     0.25123511     0.57598224     0.47952454
Ti     -5.92185367     6.86977311    -7.90947486     0.27868436    -1.83411434    -0.17076457
Ti     -7.81728700     4.27698624    -7.62576235    -0.41816190     1.44008134    -3.15010553
Ti     -7.87157342     4.28840692    -3.82274340    -0.33599133     0.91446836     1.80361983
Ti     -3.95035204     4.33971660    -7.69872715    -0.22083323     0.71049850     0.80792088
Ti     -3.99615913     4.38755037    -3.69745906    -0.33636347    -0.78099328    -0.21067324
Ti     -5.93976611     8.68803717    -2.12701516     0.11401812     1.19297959    -1.67475871
Ni     -5.86628843     2.32853178    -8.02131051     0.27424603     0.08462361    -0.23787835
Ni     -5.92581059     2.21860532    -4.04155035     0.46193247     0.04686714     1.31272295
Ni     -9.86584941     6.54509887    -7.91744055     0.69339865    -0.47048883     0.18281137
Ni     -9.83978003     6.20842182    -4.10678079     0.46390733     1.57168856    -0.18998170
Ni     -1.96891311     2.26837000    -7.95392854     0.44539594    -0.35824764    -0.09717032
Ni     -5.89466883     6.41954516    -4.01340922     0.39948975     0.68223084     0.14217134
Ni     -1.98425474     0.07915823    -5.93124839     0.38673918     0.99734669    -0.34964528
Mo     -9.77241031     8.74835192   -10.31731800    -2.20756803     0.85125994     0.01076752
Mo     -5.85632154     0.03865090    -6.34768477    -0.99692828    -0.99792276    -0.73051458
O      -1.91464623     1.95665669    -2.00950249    -0.35592053    -0.77851494    -0.05038309
O      -1.97660646     1.88676464    -5.95700591    -0.06435005     0.88274498     0.00784795
O      -5.86473817     6.80979469    -2.00579665    -0.03450072    -0.38075235     0.60842690
O      -5.82973925     7.05706436    -5.94126622    -0.35124918    -2.61125216    -0.16087250
O      -5.85606684     2.01463748   -10.02518958     0.45008469     0.54581295    -0.24643941
O      -5.83061409     2.01512829    -5.87533111    -0.23696071     0.26968669    -1.60184126
O      -9.81344960     6.95821356    -9.86803938     0.24776319    -0.32067721     0.37222335
O      -9.84761323     6.82548698    -6.01832716     0.34180637     0.04075635     0.19387514
O      -3.96004513     2.35277807    -3.94542579     1.09406947     0.43376171    -0.19593925
O      -3.86860020     2.41019969    -7.82855682    -0.56093694     0.21632339    -0.72692810
O      -7.88338033     2.39956539    -4.02357209    -0.24630145    -0.89057051     0.35170646
O      -7.79242661     2.36462833    -7.91914639    -0.94517788     0.13343091    -0.71124905
O      -3.91605332     6.25722986    -3.91146888    -0.29778799     1.20944904    -0.44406423
O      -3.97320715     6.42121199    -7.90540505    -0.66600716    -0.20336348    -0.37332938
O      -7.78828384     6.27846948    -4.09675017    -0.76183427    -0.29486432     0.37698862
O      -7.92372474     6.28634526    -7.87072434     1.29333559     0.69462690    -0.08636505
O      -3.93403089     4.42275232    -1.94016583     0.02492995    -0.23566568     0.02711735
O      -3.66361502     4.50001393    -5.95661488    -0.73626477    -0.19312210    -0.38481842
O      -7.92851742     4.46424852   -10.00141666     0.14012771    -0.55033592    -1.13921027
O      -7.68860985     4.21181732    -5.94470729    -0.21812233     0.70891495     2.07681395
O      -7.88010875     8.69297549    -2.25007091     0.65548679     0.17373522     0.81764238
O      -4.12570012     0.07636313    -5.99951529     1.51601972    -0.34575973    -0.06918036
O      -7.67015773     0.09154873    -6.08121569    -1.38633131    -0.31836721     0.08384797
O      -7.68539573     0.20743638   -10.08098828     0.55933856    -0.85900495    -0.22540453
O      -1.95778821     4.28987148    -3.94963127    -0.10664018    -2.11259200     0.24844650
O      -1.99853844     4.39044269    -0.21448999     0.21661326    -1.03487527     0.14955908
O      -5.94839474     4.11517123    -3.98464862     1.53123062     0.62365105    -0.20163141
O      -5.88960944     4.37136325    -7.94476285     0.41428029    -0.52497320    -0.08058092
O      -1.95539641     0.15269259    -4.07597284     0.23303039     1.26836156     1.67859234
O      -6.03426758     8.64790644    -7.99222675     0.27426616     0.33888687    -0.36412302
O      -5.92772318     0.30581082    -4.15319982     0.18877390    -0.33231708     1.01769314
O      -5.87235610     0.48544595    -8.18164012     0.56318677     0.33338374     1.06761814
