# total energy = -630.98523364 eV

CRYSTAL
PRIMVEC
        0.00285542     0.02004370    -7.95977623
       -7.82940539     0.00763210    -3.98158109
       -3.91729101     8.74642787     0.01461334
PRIMCOORD
56 1
Li     -3.87466758     2.41512706    -1.88472372    -0.33009974     0.00212322    -0.21131030
Li     -3.83885372     2.21669419    -5.98385932    -0.37656195     0.08124848    -0.54687500
Li     -7.87381109     2.24962694   -10.01260253     0.17404509     0.37641446     0.05285901
Li     -7.72235392     1.99706123    -5.94617985    -0.05913542     0.15413963    -0.03056847
Li     -3.89516905     6.47595721    -1.94481410     0.01766255    -0.15048835     0.12657301
Li     -3.78829953     6.50607026    -5.92645817    -0.65794389    -0.07363586     0.23953265
Li     -7.96278870     6.59223850    -9.89085916     0.23123213    -0.19090977    -0.37564158
Li     -7.72959075     6.37671469    -5.91585404    -0.20290005     0.87317185     0.35839207
Ti     -2.05410713     2.08789336    -4.12249602     0.85157178    -0.04016793    -0.21914869
Ti     -5.98333733     6.51206793    -8.05737416     1.00203994    -0.11394365     0.06595102
Ti     -7.89212039     4.30663671    -7.66758251     0.03082814     0.08874403     0.48195913
Ti     -7.86952017     4.37712657    -3.73684275     0.33613393    -0.44220816    -0.70580120
Ti     -3.84389113     4.44779163    -7.65327781     0.32659556    -0.54081330     0.10699178
Ti     -3.90983875     4.41807865    -3.80710376    -0.87837730    -0.63259874     0.74753444
Ti     -2.24703288     0.00572976    -1.83840697    -0.38440071    -0.29489869    -1.44182099
Ni     -5.78406735     2.36094690    -8.02784516    -0.88508490    -0.17198537     0.69237241
Ni     -5.81670750     2.26328126    -4.04744090    -0.93924273     0.44041354    -0.98463520
Ni     -9.81648975     6.57111511    -7.83390888     0.77858742     0.34170195    -0.51899626
Ni     -9.70122285     6.65388823    -4.01196800    -0.40744836     0.20362880     0.41702791
Ni     -1.97841276     2.06150137    -8.02102357     0.36276132     0.22634726     1.55851277
Ni     -5.83901352     6.53541723    -4.02138674    -0.66425428    -0.15993242     1.30673429
Ni     -5.89453714     8.69195619    -5.84070344    -0.09950995    -0.28653158    -0.99108978
Mo     -6.06954814     0.13583408   -10.22179886    -0.60371018    -0.82505869     2.10463438
Mo     -9.69892431     8.67349932    -6.30736136     1.80388915     0.52362294    -1.27381409
O      -2.02676702     1.85481617    -1.86952557     0.51604207     0.77630079    -1.13340956
O      -1.89264002     1.85015031    -6.07337789    -0.84254960    -0.21182280     0.63912158
O      -5.89368711     6.70567630    -1.96760650     0.03514277     0.73711210    -0.21757172
O      -5.82713438     6.79426051    -5.77941663     0.21721766     1.18187346    -1.28897178
O      -5.88784601     2.05823334   -10.00945555     0.19696876    -0.40920296    -0.11653216
O      -5.71151004     2.01834672    -6.02931885    -0.71431658    -0.56889871     0.42425429
O      -9.79185882     6.98164015    -9.81464490    -0.57284714     0.57115967     0.13237027
O      -9.69038710     6.75779933    -5.97371531    -0.56437052    -0.14245621     0.21833648
O      -3.91984193     2.37473447    -4.08169971     0.24911433    -0.26219259     0.90781049
O      -3.87368132     2.50214650    -7.94483185     0.20556291    -0.21796189    -0.23565331
O      -7.90201696     2.33147358    -4.07630597     0.50851089     1.18812138     0.46482381
O      -7.84352554     2.44527334    -7.92726372     0.71162905    -0.81279003     0.11000688
O      -3.85252049     6.31018554    -3.88823030    -0.15105649     0.81329464    -0.42519859
O      -3.96244151     6.34539353    -7.92195543    -0.20745609     0.81483553    -0.03716657
O      -7.79344267     6.47558973    -3.98125511     0.32826116    -1.02343220     0.78314753
O      -7.87333775     6.37748132    -7.93844254    -0.13120617    -0.20712897    -0.15163312
O      -4.01627967     4.32782526    -2.00984731     0.63150037    -0.03197040    -0.84279780
O      -3.80363490     4.30271192    -5.89070647    -0.37962728     0.42479668    -0.66694184
O      -7.79209578     4.31542768    -9.94430837     0.11059676     0.50131064    -0.19536618
O      -7.80253545     4.59769967    -5.91874251    -0.66415142    -1.16187877    -0.87564851
O      -7.96426089     8.74263656    -9.85805199     0.08331816     0.18735530    -0.30061695
O      -7.84250105     8.65309136    -6.04055296    -0.27617484     0.36470501     0.03652634
O     -11.42546289     8.75501758    -6.02493012    -1.72288917    -0.28998206     0.79646368
O      -0.05576817     0.06593553    -6.04378318     1.93778616    -0.22507145    -0.35658218
O      -1.91329916     3.99896628    -4.12645824    -1.07315897     1.42443353     0.86037335
O      -9.78951348     4.87174796   -11.78651159     0.47779294    -0.81681945    -0.78310678
O      -5.90013507     4.27068062    -4.20285043     0.56162424    -0.27406423     0.97588181
O      -5.91532634     4.47948066    -7.96911966     0.70681893     0.19931040     0.25190960
O      -1.93923504     0.25698140    -3.93241161    -0.09247371    -0.90630265     1.11930085
O      -5.89605550     8.47508944    -7.96482542     0.03166559    -1.19469158     0.23951928
O      -5.76074106     0.15236384    -4.00820557    -0.12672774    -0.20023286    -1.18779566
O      -5.92685453     0.48270102    -8.09962895     0.55523604     0.53687742    -0.07913557
