# total energy = -630.79038900 eV

CRYSTAL
PRIMVEC
        0.00279571     0.02951795    -7.98606283
       -7.83802570     0.01298533    -3.99532603
       -3.92160916     8.71933433     0.00634407
PRIMCOORD
56 1
Li     -3.92952073     2.14507172    -2.01017994     0.09528184    -0.00984918     0.35327254
Li     -3.89912398     2.06648217    -6.04448335    -0.18801394     0.27205086    -0.11783686
Li     -7.63858181     2.35443166    -9.94501351    -1.19825061     0.23931911    -0.16233331
Li     -7.85918990     2.08271345    -5.80220118     0.07783954     0.65613875    -0.45575629
Li     -3.87403683     6.42924171    -1.98226326    -0.30950339    -0.03435202    -0.12481548
Li     -3.93469571     6.36394299    -5.80292617     0.16130816    -0.00193835    -0.88471747
Li     -7.89102029     6.60292484   -10.04366636    -0.35451666    -0.31294075     0.41900743
Li     -7.88497242     6.58822295    -5.94239478     0.05187526    -0.24289934    -0.16945461
Ti     -1.97745612     2.10006565    -4.15418368     0.68949483    -0.40650203     0.41410150
Ti     -5.76177288     6.56871249    -8.03207202    -1.86928931    -0.60807655     1.53011974
Ti     -7.82748455     4.33448935    -7.75925348     0.10606205     0.94433585     0.52889422
Ti     -7.86465029     4.38197617    -3.78556296    -0.18986272     0.48101156    -0.43020784
Ti     -3.77600884     4.32596592    -7.82739533    -0.85314677    -0.27392163     1.06827754
Ti     -3.94616341     4.30521867    -3.71826359     0.13329721     0.43298762    -1.69056674
Ti     -6.01951116     8.67714061    -2.01081587    -0.92891618     1.78367732    -0.31954771
Ni     -5.79543814     2.41298202    -8.06018327    -1.42991325     0.40222066     0.64051877
Ni     -5.85135760     2.32367666    -4.05971834    -0.38915715    -0.13138085     0.57617192
Ni     -9.81143023     6.68779032    -7.86516258     0.14612769    -0.15566017    -0.90625978
Ni     -9.82429123     6.52905698    -4.09859991     0.40515715     1.17117816     0.74281848
Ni     -1.97759999     2.01676549    -7.92788759     0.17811240     0.29422383    -0.04456642
Ni     -5.85368241     6.51573200    -4.02321886    -0.32770942    -0.34718458    -0.02626422
Ni     -5.91283717     8.57782133    -5.97775594     0.13486122     1.79811391     0.98412862
Mo     -5.97670645     0.12546101   -10.24524228    -0.69523886    -1.51112019     0.97846072
Mo     -5.94895435     0.07261454    -6.28333609     1.50027880     0.40002727    -1.74314441
O      -1.97614620     1.82039598    -1.84348381     0.13546741     0.51139393    -0.07433456
O      -1.96171314     1.84319472    -6.00259782     0.11384079    -0.88666052    -0.68500311
O      -5.93688873     6.82788734    -1.92542970     0.87560623    -1.83546530    -1.06090872
O      -5.95944011     6.80132571    -5.91078989     0.83590967    -0.38615454    -0.16940350
O      -5.90052551     2.02652189   -10.10146963     1.11322990     1.22104838    -0.22396820
O      -5.76261701     2.08207885    -5.86057140    -1.01771688    -0.98596648    -0.99196083
O      -9.86715866     7.00796108    -9.77755523     0.85747760    -0.75275339     0.44796032
O      -9.90637365     6.83293814    -6.02761962     0.02607699    -0.17898862     0.17611051
O      -3.91020364     2.35745507    -4.11597748    -0.05001231    -0.38594379     0.88141888
O      -3.96721772     2.40964902    -8.00911927     1.44116283    -0.14303325     0.12584630
O      -7.84200770     2.49254011    -3.94169429    -0.16593532    -1.25121350    -0.16777951
O      -7.72392440     2.40981914    -7.96340342    -0.73304874    -0.09774005    -0.57525597
O      -3.85426933     6.28184157    -4.01372723    -0.14778922    -0.21514086     1.39316860
O      -3.93226868     6.41016148    -7.89716959     0.69077477    -0.19558925    -0.92352633
O      -7.77542169     6.31700087    -4.07593138    -0.51363262     0.71780146     0.57447089
O      -7.83751011     6.33863577    -7.91595229    -0.48939759    -0.02469895    -0.35060058
O      -3.90361545     4.18224125    -1.99858412    -0.32687003     0.64120645     0.50609398
O      -3.92538541     4.37001388    -6.08210148     0.48408538    -0.04121157     0.55221933
O      -7.90555514     4.47786155   -10.02041823    -0.35858467    -0.11677823     0.67326115
O      -7.88191261     4.33207851    -6.02524270    -0.03968811     0.11787356     0.23689986
O      -4.04541035     0.08318738    -9.96143557     1.43498672    -0.19901426    -0.27945326
O      -8.09153780     8.56049442    -5.92255245     0.29145976     0.97068367    -0.31469232
O      -7.71676286     0.14311668    -5.95553852    -1.09353839    -0.75385174    -0.00135950
O      -7.72155243     0.06595452   -10.03274615    -0.89549998     0.31211646     0.46777215
O      -1.97966795     3.92350808    -3.94970362     0.19113554     0.99271368    -0.30686912
O      -9.84215352     4.74612007    -4.21316305     1.46264956    -0.55331071     0.40849777
O      -5.89301013     4.42903176    -4.00948717     0.42560275    -0.08294308    -0.12444086
O      -5.84195326     4.48648868    -8.02174304    -0.01519918    -0.33762189    -0.27144232
O      -1.87820291     0.08600518    -3.92570241    -0.39387193     0.29568375    -0.11035506
O      -5.81182431     8.42175131    -7.89179364    -0.44032548     0.36594071    -0.73847046
O      -9.94245160     8.72356914    -4.01041984     0.80067108    -0.48559060    -1.54751320
O      -5.92445738     0.63193507    -8.10257863     0.47148282    -0.81226868     1.39106997
