# total energy = -630.57379917 eV

CRYSTAL
PRIMVEC
        0.00279571     0.02951795    -7.98606283
       -7.83802570     0.01298533    -3.99532603
       -3.92160916     8.71933433     0.00634407
PRIMCOORD
56 1
Li     -3.98752456     2.48202765    -1.86614899    -0.54800137    -0.34603981     0.18745360
Li     -3.73472364     2.38836976    -6.11199331    -0.58680415     0.18421573     0.58630433
Li     -7.86843770     1.97768560    -9.86832157     0.46162049     0.14782812    -0.21383413
Li     -7.90442289     2.19682586    -5.80703935     0.40809706     0.09191743    -0.31987983
Li     -4.01497753     6.52790853    -2.01780126     0.20055379     0.03258822     0.45393306
Li     -3.91290889     6.58849862    -5.81809342     0.10452516     0.00022253    -0.38839397
Li     -7.90359091     6.54667406   -10.01859776     0.02785778     0.05750829    -0.01922661
Li     -7.91717600     6.48779071    -5.97636903    -0.11899876    -0.02637532     0.87913637
Ti     -2.07261436     2.26926906    -3.94514055     0.47244029    -0.79423110    -0.67764725
Ti     -5.94384063     6.62850841    -7.84755248     1.03124431     0.43230685    -0.38610014
Ti     -7.77494668     4.31936757    -7.72129530     0.31794762    -0.15793135    -1.09043820
Ti     -7.81295775     4.33290598    -3.64970989    -0.74152699    -0.41962700     1.00175155
Ti     -3.85040315     4.44067298    -7.83551822     0.93700674     0.22387686     0.00147462
Ti     -4.04760222     4.40296070    -3.72855626     0.34621731     0.86779738     1.66816903
Ti     -1.77167193     0.09059069    -2.02022752    -0.24456008    -1.12795454    -0.53057048
Ni     -5.90687845     2.19402667    -7.91337561     0.21926660    -0.40081149     0.43463558
Ni     -5.89465197     2.22836945    -4.07093731     0.37457609     0.58014298     0.75237749
Ni     -9.76999988     6.33505686    -8.08613930    -1.00371147    -0.86128264     0.42964880
Ni     -9.86347499     6.67043599    -4.00563668     0.71967193    -0.16818986    -0.27799557
Ni     -1.96155122     2.06501697    -8.01145595    -0.01261305     0.31700028     0.55214063
Ni     -5.93386760     6.62012308    -4.01574450    -0.29871721     0.13915612     0.37564399
Ni     -1.90396862     0.09500273    -5.93229653     0.34839293    -0.43688592     0.01584583
Mo     -5.90496397     0.04493930   -10.36033660    -0.56203870    -0.59645006     0.14958440
Mo     -5.72448159     0.03119872    -6.37880286    -2.75414094    -0.27178657     0.33672360
O      -2.17145554     1.99166262    -1.99188402     0.81757121     0.14343638     0.27337881
O      -1.81471001     1.95640642    -5.95373567    -1.54814118    -0.64245494    -0.36472501
O      -6.06193153     6.92434438    -2.13592929     0.84642172    -0.26177396     0.14208977
O      -5.85617735     6.90007703    -5.90752733    -0.22701388     0.48981305    -0.28945432
O      -6.01694975     1.89511797    -9.77823927     1.14856934     0.29248458     0.15526082
O      -5.84381023     1.89269179    -5.96529764    -0.35749079     0.55599147    -1.82144443
O      -9.80213710     6.75102867   -10.17833419    -0.25894602     0.33715568     0.81671559
O      -9.93651466     6.88813960    -5.81593484     0.89040242     0.55882648    -0.44086092
O      -4.02550077     2.43051643    -4.06381888     1.70362090     0.42379325     0.30800654
O      -4.03010952     2.43154227    -7.91996567    -0.31809398    -0.19684978    -0.76722748
O      -7.70735410     2.34288726    -3.87213252    -1.18783038     0.32330805    -0.40825553
O      -7.85877292     2.35508312    -7.98147061    -0.47926134     0.54283695     0.43284407
O      -3.90133466     6.27644346    -3.86769844    -0.51594122     0.32937369    -1.38624733
O      -3.84841834     6.57704573    -7.98969798    -1.69394197    -1.34374330     0.42144717
O      -7.84095807     6.22263172    -4.07535776    -0.24560894     0.51901768    -0.18096349
O      -7.87354245     6.34045858    -7.81110595     0.13454122     0.05529657    -0.59108626
O      -3.97840556     4.54125126    -1.86163972    -0.31005474    -1.06102615    -2.33043275
O      -4.13205412     4.38903894    -6.11087926     0.50415365     0.52090732     1.27630506
O      -7.88777511     4.63192543    -9.86719884     0.11977727    -0.86038305    -1.17880730
O      -7.77129717     4.10017168    -6.01015895    -0.09390169     0.95552060     0.73866461
O      -4.17749361     0.02367922    -2.19690043     1.43974864    -0.12269783     1.15720514
O      -7.96933319     8.70277336    -6.10141379     2.46873811     0.02334388    -0.09869727
O      -7.81389395     0.14145764    -6.08627029    -0.21555300     0.07510867    -0.12444055
O     -11.64639269     8.69867322   -10.02091186    -1.52167155    -0.00007528     0.26321359
O      -2.03187581     4.36369242    -3.96747628     0.51976735    -0.57299030    -0.20932496
O      -1.92741223     3.95618816    -8.00685462     0.19986452     0.02521730     0.22241417
O      -5.86067938     4.12522350    -3.98104782    -1.38960997    -0.07817921     0.03033364
O      -5.85678626     4.75581030    -8.05508212    -0.61208287     0.11987948     0.17596972
O      -2.20849400     0.39539611    -3.93996959     0.68016719    -0.19112122    -0.47736870
O      -5.90028657     8.57402817    -8.09957577    -0.34070675     0.90519027     0.69575006
O      -5.88518903     0.39059680    -4.16555383    -0.32388108    -0.65163519    -0.41862790
O      -9.95397508     8.12199357    -8.07354575     0.90051507     0.79960156    -0.18555210
