# total energy = -630.52986329 eV

CRYSTAL
PRIMVEC
        0.00279571     0.02951795    -7.98606283
       -7.83802570     0.01298533    -3.99532603
       -3.92160916     8.71933433     0.00634407
PRIMCOORD
56 1
Li     -3.75705868     2.26361385    -2.02135376    -0.66263201     0.13601570     0.45267774
Li     -4.03697993     2.00752989    -6.07776111     1.12139651     0.29451487     0.19300384
Li     -7.69220710     2.23019371    -9.93235176    -0.58021723     0.40690211    -0.53876666
Li     -7.94515094     2.27222591    -5.93403881     0.85195003    -0.08194311     0.46834745
Li     -3.96673476     6.30497478    -1.90881619     0.50016627    -0.14472705    -0.08199207
Li     -3.92097189     6.30598284    -5.95303947     0.21988584    -0.28302924     0.61781240
Li     -7.93172802     6.50665253    -9.71865836    -0.03227482    -0.48201287    -0.63534952
Li     -7.85535941     6.73664183    -5.86131808     0.38024644    -0.49353268    -0.06713175
Ti     -1.82800255     2.16552302    -4.11683281    -1.02405340     0.90850061    -0.47241324
Ti     -5.77999980     6.64449424    -7.84680678    -0.52502657    -0.74727070     0.01160935
Ti     -7.72764875     4.35794824    -7.61064047    -0.63445188     1.21284991    -1.04876193
Ti     -7.89173947     4.50607909    -3.71904520     1.09974786    -1.21230630     1.25618482
Ti     -3.70180067     4.26643267    -7.79194162    -0.64744160     0.07412352     0.79444174
Ti     -4.00486945     4.24419522    -3.78472059     0.81905504     0.32102483     0.65468882
Ti     -6.22145285     8.64009153    -2.08208742     0.48026262     0.81388876    -0.69970441
Ni     -5.80938226     2.35302282    -8.17750252     0.19564582    -0.19118896     0.66238182
Ni     -5.90127410     2.15933714    -4.04939403     0.18351198     0.12825364    -0.06624197
Ni     -9.93756317     6.71067673    -7.80170094     0.79130121    -1.79303960    -0.86753656
Ni     -9.73583824     6.71226828    -4.05807522    -0.26477439    -0.42847362     1.03123789
Ni     -1.83608619     2.21080156    -8.01442279    -0.89704592    -0.89731487     1.07203032
Ni     -5.86070466     6.57676183    -3.88705482     0.03440381     0.03356835    -0.19204273
Ni     -6.00371311     8.70622680    -6.05918957     0.84110933     0.16379732     1.40721359
Mo     -9.99364665     8.66717280   -10.25057799    -1.43461656     0.00936200    -0.11716344
Mo     -5.94875011     0.04590886    -6.48079809     1.42075839    -1.31383014     1.73819409
O      -1.91576249     1.86940273    -1.88754299     0.16208133    -0.84058638    -0.72130290
O      -1.92399067     1.87770394    -6.07529628    -0.40016218    -0.41689466     0.20751195
O      -5.79429826     6.79140564    -1.88473504    -0.78625130     0.04813650    -0.81340421
O      -5.82377210     6.83559917    -5.85476427    -0.48752477     0.12635907    -0.71644700
O      -5.85351482     1.98376481   -10.14084590     0.13490269    -0.22100407    -0.46985760
O      -5.82502761     1.89800563    -6.01658558    -0.76945030     0.95734650     0.63282365
O      -9.82716629     6.86611928    -9.67848911    -0.81388556     0.84049386     0.00726743
O      -9.71820283     6.81813449    -5.96832239    -1.41156420     0.38476340    -0.77493888
O      -3.76362447     2.31088330    -3.93276008    -0.96764214     0.12943988    -0.67393962
O      -3.77796581     2.35104259    -8.00557651    -0.41882216     0.35327071    -0.29141720
O      -7.87310137     2.49073063    -3.85958367     0.71361498    -0.16661301    -0.98626089
O      -7.75113810     2.38581922    -7.98719297     0.02721308     0.23180671     0.08619681
O      -3.95620136     6.21698033    -3.88968515     0.43411290     0.92206660    -0.24794599
O      -3.87942049     6.31961528    -7.91682495    -0.45266298     0.70279372    -0.19515154
O      -7.83485184     6.40898988    -3.85176267     0.80316537     1.45158060    -0.49373881
O      -7.78249948     6.29038084    -7.89998268     0.21637115     0.15980658     0.55999701
O      -3.88122522     4.33025205    -1.98257925     0.13886064    -0.21225256    -0.37940087
O      -3.87915790     4.31027708    -6.02609195    -0.07010882     0.04105598     0.28229407
O      -7.96069343     4.54296868    -9.93904095     0.82631851    -0.55215192    -0.00286929
O      -7.86076886     4.49074183    -5.87861932    -0.29368374    -0.59883026     0.05234607
O      -8.04703321     8.72022782   -10.03411400     1.40541335    -0.14250679     0.21243398
O      -7.95641119     8.61418012    -6.16966285    -0.44266209     0.86514888     0.01466358
O     -11.58003162     8.73524418    -6.16197523    -1.30847992    -0.31293963     0.38131765
O      -7.86522104     0.10654683   -10.00477344     1.21081458    -0.51124741    -0.48831644
O      -1.87454774     4.12228211    -4.06069549    -0.21821927    -1.48166508     0.47240963
O      -9.74686993     4.85883097   -11.79484657    -0.41524729     0.10864336    -1.24253157
O      -5.86192141     4.27413582    -4.00012368    -0.53743032    -0.28058956    -0.06409157
O      -5.80034006     4.32185015    -7.92449194    -0.12604116    -0.27100426    -0.37653128
O      -2.05277964     0.14856456    -4.01742527     0.22654989     0.50056426     0.97978861
O      -5.92601971     8.43367117    -7.95314509     0.23184706     0.66513158    -0.85514855
O      -9.87269471     8.67681530    -4.12089724     0.11386026     0.00656622     0.68817681
O      -5.97744269     0.48481426    -8.25541603     0.73909599     1.05664733    -0.28516018
