# total energy = -630.54608711 eV

CRYSTAL
PRIMVEC
        0.00279571     0.02951795    -7.98606283
       -7.83802570     0.01298533    -3.99532603
       -3.92160916     8.71933433     0.00634407
PRIMCOORD
56 1
Li     -3.93181124     1.99078832    -1.91345815    -0.02008049     0.18222848    -0.01137140
Li     -4.00863609     2.03242705    -5.95913198     0.36671008     0.36876859    -0.34228897
Li     -7.63657739     2.35329049    -9.89804615    -0.91697870    -0.22825112    -0.12909283
Li     -7.88674276     2.22397318    -5.97340561     0.51100211     0.23105952     0.09403819
Li     -3.93063591     6.49933728    -1.96265311     0.34170537    -0.24416917    -0.22251633
Li     -3.84307112     6.34732633    -5.82186068    -0.14131454     0.16284493    -0.18595028
Li     -7.80247728     6.57326745   -10.05591648    -0.28725914     0.12906708     0.72694913
Li     -7.86380844     6.73950715    -5.99599329     0.15626201    -0.33270063     0.43513074
Ti     -1.98853647     2.31084274    -4.15605375     0.93118743    -0.89636660    -0.09663895
Ti     -5.80272908     6.70607648    -7.89475767    -0.66219071     1.31444477    -0.08669837
Ti     -7.75656230     4.45923718    -7.74487510    -1.02473622     0.04861909     0.29937510
Ti     -7.86259266     4.33043643    -3.62209874    -0.04872800     0.49101696    -0.66274411
Ti     -3.94752313     4.40391756    -7.75082300     1.76250473    -0.84973856    -0.09301352
Ti     -4.06264985     4.26593365    -3.72690368     0.62972430     1.89066676    -0.87458998
Ti     -5.93022149     8.68872844    -2.17257820    -0.82849398     0.02269181    -0.19319220
Ni     -5.87885498     2.35514274    -7.97760678     0.05288107     0.11817968    -0.42089513
Ni     -5.90539864     2.17240553    -4.02613854     0.08798015     0.73833435     0.34251558
Ni     -9.87911153     6.60518562    -7.94323084     0.24240275    -0.05494733     0.08651256
Ni     -9.78912327     6.35158194    -4.15758899     0.57967913    -0.09594000     0.70010907
Ni     -1.95289007     2.33606920    -8.10924036     0.74989740    -0.50533786     1.55010536
Ni     -5.89911710     6.47583140    -3.94162940    -0.00592405     0.54260033    -0.33291035
Ni     -5.77914501     8.70963431    -5.92438901    -0.56048406     0.35421798    -0.66422296
Mo     -9.87155497     8.65669418   -10.21843223    -0.56503792     0.25746591    -0.20415374
Mo     -9.84224480     8.73323574    -6.31539715    -0.13569804    -0.41233036    -1.41478341
O      -1.86323223     1.84555227    -1.92202338    -0.99513965     0.18303502    -0.62868064
O      -1.87674650     1.88596126    -6.06798658    -0.25649536    -0.43296850     0.51336844
O      -5.82141101     6.72586146    -1.97221138    -0.42983426     0.34063297    -0.04413422
O      -5.87535470     6.79165078    -5.93152610     0.07648368     0.60679238     0.27934026
O      -5.87440908     1.95562095   -10.07525729     0.21939730     0.99009889     0.22077848
O      -5.91296392     2.03867617    -5.92845076    -0.09355779    -0.26775848    -0.47110347
O      -9.73517010     6.82741999    -9.87746770    -0.52060646    -0.27578290     0.39959804
O      -9.80982517     6.74937037    -6.08680775    -0.13760811     0.93810371     0.60850080
O      -3.94370430     2.37526003    -3.93841132    -0.13605653    -0.97819442    -0.62898322
O      -3.82818033     2.50518275    -7.98867584    -0.90559868    -0.63574306    -0.23735922
O      -7.82868757     2.38356839    -4.04503864    -0.48662291     0.90512612     0.63555804
O      -7.83732933     2.39320359    -7.91510092     0.02998447     1.02240461    -0.54396406
O      -3.98018519     6.37216256    -3.91359186     0.43298480    -0.71107035    -0.40941174
O      -3.82222082     6.35694693    -7.92850013    -1.23470568     0.51540066    -0.64303273
O      -7.91566148     6.40811751    -3.97502974     0.82398405    -1.36039586    -0.04136895
O      -7.87338064     6.47934850    -7.96413864     0.67332229    -1.18779223     0.01150070
O      -3.55635308     4.39275623    -2.09487617    -1.03352733     0.18147018     2.04803022
O      -3.79211351     4.41396896    -6.02137642    -0.49525605     0.01977109     1.05239824
O      -8.02015078     4.33489059    -9.83149331     0.65629702     0.20352187    -0.84717438
O      -7.97936703     4.42817242    -6.02024099     0.12499018    -0.03630146    -0.23971365
O      -4.03025907     0.01591148    -2.05522564     1.43075595    -0.46972015     0.21921902
O      -4.18046996     0.10377885    -5.92642925     0.83358683    -0.70236493    -0.54446817
O     -11.65009498     8.72102629    -6.07399689    -0.76978147    -0.28045733     0.44502794
O     -11.69045135     8.63362434   -10.20854284     1.08588555     0.09423062     0.81700018
O      -2.11388574     4.08624991    -4.13802250     1.75097560     1.16630763     0.07676368
O      -9.75277433     4.44783411    -4.01836023    -0.28984929    -0.26606631    -0.13875161
O      -5.93809342     4.26040698    -3.86034018    -0.67461703    -0.27281122    -0.32266800
O      -5.82450852     4.49758710    -7.88915856    -1.22041855    -0.23742077    -0.52806684
O      -2.00840700     0.29963917    -4.01425737     0.43103726    -0.87490679     0.03359164
O      -5.90538298     8.53082749    -7.94470681     0.23285806    -0.82857546    -0.13288351
O      -5.81173055     0.32296082    -4.01622619    -0.52382930    -0.71750190    -0.48858660
O      -5.96186706     0.53545833    -8.17525563     0.38594854    -0.21238517     1.26028700
