# total energy = -630.50884230 eV

CRYSTAL
PRIMVEC
        0.00285542     0.02004370    -7.95977623
       -7.82940539     0.00763210    -3.98158109
       -3.91729101     8.74642787     0.01461334
PRIMCOORD
56 1
Li     -4.11369108     2.23695906    -1.88567715     0.58096380     0.10441817    -0.49383453
Li     -3.79581563     1.97627620    -6.08603458    -1.45238140     0.39972459     0.27039020
Li     -7.87122631     2.28008572    -9.93705319    -0.21012356     0.18123821    -0.57398689
Li     -7.84605007     2.27661520    -5.92459360     0.32611558    -0.34797480     0.08492878
Li     -3.76680641     6.50262756    -1.73834672    -0.11057169    -0.03434152    -1.06335486
Li     -3.88411448     6.31715659    -5.79025799    -0.15365277    -0.02157545    -0.23476839
Li     -7.90932674     6.28084766    -9.89956422    -0.04938309     0.41376012    -0.07648031
Li     -7.67204402     6.54897728    -5.94845168    -0.56533245     0.18194954     0.64583179
Ti     -1.91454233     2.11893005    -4.03411808    -1.27357635     1.11722272    -0.19134131
Ti     -5.89722153     6.68506227    -8.02609390     1.21743275     0.57576870     0.74134243
Ti     -7.86961942     4.36731016    -7.70553608     0.19969022    -0.20223355    -0.82105548
Ti     -7.79435032     4.36213890    -3.81694999    -0.67817427     0.22049632     0.07442621
Ti     -3.83276890     4.41134610    -7.73149571     0.65610449     0.34001051     0.29145078
Ti     -3.96229289     4.41994728    -3.69717765    -0.20472864    -0.78593229     0.01593099
Ti     -6.14986564     8.70964415    -2.15591885    -0.03110644    -0.35742562     1.92220936
Ni     -5.84215854     2.48053238    -8.00823124     0.42031421    -0.40480544    -0.14574614
Ni     -5.95214471     2.22573175    -3.92266520     0.58039222    -0.52868418    -0.87885125
Ni     -9.82555487     6.54132668    -7.85938920     0.56144317     0.44790421     1.55798953
Ni     -9.67049737     6.58517137    -3.98043094    -1.32148972     1.38487910    -0.20363342
Ni     -1.96559851     1.98587158    -8.01111660    -0.04642401     0.47294994     0.43897725
Ni     -5.84931288     6.63409157    -3.94172867    -0.32066199    -0.44952907    -0.17608702
Ni     -5.87336848     8.58335619    -6.01140018    -0.55727958     2.09458245     0.46039699
Mo     -9.95643481     8.74881001   -10.13215308     1.55831518     0.15828028    -0.51131154
Mo     -5.91767806     0.02902176    -6.33792847     1.31075934     0.32031972    -0.14291146
O      -1.91538979     1.85725769    -2.05119276    -0.28436957     0.01081344     0.03353651
O      -2.06951238     1.76669924    -6.00653005     1.69070933    -0.68196764    -0.02336592
O      -5.86765043     6.75846387    -1.98597583    -0.33843953     0.18993114     0.03538282
O      -5.77564158     6.77785275    -5.94234052    -0.35782299     0.09745063     0.06794441
O      -6.02532745     2.02581225   -10.00732501     1.02485439     0.32858580    -1.03420554
O      -5.77435486     1.92063061    -5.78094603    -0.66496289     0.04116482    -0.62051297
O      -9.85030740     6.89786156    -9.67769104     0.21068313     0.29789009    -0.47642421
O      -9.61223327     6.85844720    -5.93142240    -1.53168197     0.17044850    -0.59476588
O      -3.97613272     2.40789250    -3.88516818     0.47339627     0.46408999    -0.08293239
O      -3.86283445     2.53077504    -8.01708791     0.01557699    -0.82260879     0.08494837
O      -7.92814287     2.36739550    -4.03146339     0.49657677     0.61686176     0.69401117
O      -7.81747269     2.33608813    -8.06214391    -0.56178179     0.58897235     0.80088568
O      -3.81434324     6.43751678    -3.74734678    -0.41777041    -0.63985200    -1.02272870
O      -3.96705017     6.42022072    -7.89685799     0.23756351    -0.22177479     0.26184258
O      -7.87833380     6.46114022    -3.96538749     1.61634111    -0.90500042     0.15608238
O      -7.87240209     6.28920273    -7.81716123     0.41113405     0.30550315    -1.12091213
O      -3.74937627     4.39957509    -1.95340935    -0.37176433     0.00083501    -0.27694956
O      -3.67871873     4.31254071    -5.97729907    -0.11069765     0.64166385     0.35549948
O      -7.71906331     4.41947117   -10.00454588    -0.41427985    -0.56382217     0.36492796
O      -7.81939140     4.23278348    -5.98519068     0.43604648     0.04816856     0.41676054
O      -7.95259315     8.74576653    -9.93107291     0.17996182     0.18090270    -0.00037543
O      -7.95740587     8.71564951    -6.12152938    -0.13208567    -0.13229971    -0.02058977
O      -7.72412732     0.04293426    -5.94972853     1.39241780    -0.47773022    -0.95842684
O      -7.74393542     0.10962196    -9.88615880    -1.53400396    -0.59571457    -0.19169672
O      -1.94760684     4.11811354    -3.97168220     0.22886888    -0.95977478    -0.30242318
O      -9.67844174     4.81569059    -4.12734550    -0.48386918    -1.21229969     0.47923906
O      -5.87667717     4.65590636    -4.08690522     0.69523660     0.09853699     0.26939555
O      -5.79464337     4.45083482    -7.99203847    -0.81670206    -0.33394044     0.28820682
O      -2.14288792     0.04027292    -3.97429184     0.83922415     0.40380770    -1.48673876
O      -5.81302024     8.56247534    -8.01296499    -0.46851530    -1.36962468    -0.02211155
O      -9.69818968     8.73564371    -4.02422144    -0.73925843    -0.52196416     1.39858764
O      -5.64956315     0.67476345    -8.15905733    -1.39685512    -0.78827045     1.44458201
