# total energy = -631.04468246 eV

CRYSTAL
PRIMVEC
        0.00279571     0.02951795    -7.98606283
       -7.83802570     0.01298533    -3.99532603
       -3.92160916     8.71933433     0.00634407
PRIMCOORD
56 1
Li     -3.90602156     2.41078614    -2.01448040    -0.12627960    -0.10473070     0.50399986
Li     -3.92406597     1.96395815    -5.99317866     0.07035426     0.39467078     0.24880910
Li     -8.00235503     2.47824893    -9.86863266     0.83323827     0.04972741    -0.49067337
Li     -7.87385911     2.12749599    -5.92244943     0.22717570     0.02269019     0.33480333
Li     -3.92183713     6.57522407    -2.06206210     0.09511898    -0.14344137     0.12802312
Li     -3.96295138     6.77954349    -6.13561769     0.16692463    -0.10104326     1.21254395
Li     -7.99181153     6.55017566    -9.93618040    -0.08232948    -0.11165062    -0.00755642
Li     -7.85081675     6.75016236    -5.89912936    -0.27000494    -0.34308891    -0.26199855
Ti     -1.93911442     2.17807804    -3.89633393     0.16846723     0.04918623    -0.47808870
Ti     -5.86788929     6.55881037    -8.02203149     0.18278459     0.88713134     0.91014991
Ti     -7.80620738     4.40397900    -7.68296449    -0.42928409    -1.46515537    -0.20726976
Ti     -7.91182120     4.47105289    -3.76588193     1.06732072    -0.76890505    -0.68701759
Ti     -3.81305948     4.30787431    -7.64072551    -0.03901787    -0.58005215    -1.45847772
Ti     -3.99131235     4.33190887    -3.81967240    -0.27393327     0.63227647    -0.88208758
Ti     -6.05361152     8.67449048    -2.03474749     0.74211676     0.75251635     0.00986545
Ni     -5.76273513     2.32801413    -7.99670128    -0.68557426     0.04252862    -0.27569597
Ni     -5.94905005     2.31779902    -3.91531556    -0.50670048    -0.39202284    -0.90170195
Ni     -9.94031460     6.57270427    -7.96820542     0.20723348     0.36998931    -0.26790932
Ni     -9.79649912     6.45853620    -3.99219708    -0.90007360     0.27895315    -0.53270704
Ni     -1.95618256     2.08952840    -7.93867961     0.66955028    -0.34509134     0.06165872
Ni     -5.91797484     6.52788727    -4.06834927    -0.02978959     0.03069997    -0.18215592
Ni     -5.77550174     8.71158829    -5.93389282    -0.61918870    -0.16886874    -0.90555553
Mo     -5.90539507     0.17210464   -10.39189263    -0.94431207     0.29296877     0.04675908
Mo     -9.76604128     8.70874218    -6.30145136    -2.57267118     0.72546992    -1.16709393
O      -2.00731183     1.90253754    -1.90328364     0.35951284    -0.06407757    -0.68961130
O      -1.86810661     1.77865621    -6.06246817    -0.87869059     0.79117690     0.77133944
O      -5.84565187     6.80294893    -1.88863508    -0.46710421    -1.24810610    -1.30212081
O      -5.98580029     6.87873440    -6.01133645     1.08106636     0.03990844     0.18735827
O      -5.90796062     2.10411649   -10.08104313     0.46793573    -0.51296120     0.65876128
O      -5.98419354     1.91055532    -5.74562533     0.94493248    -0.65441797    -0.51747148
O      -9.91408084     6.99941742    -9.79726420     0.88932977    -0.47973219    -0.34447898
O      -9.85573900     6.77417113    -6.11957586     0.44912859    -0.07832914     0.39882898
O      -3.95491048     2.34061246    -3.94310720     0.01020138     0.03708456    -0.32966674
O      -3.82705403     2.37974092    -8.08205965    -0.40260027     0.44584176     0.77469120
O      -7.91839275     2.45511128    -3.91658235     0.67788532     0.39015507    -0.18347883
O      -7.80452874     2.37770085    -7.92248415    -0.12184877     0.25958554    -0.18577759
O      -3.98627366     6.30280521    -4.08910425     0.49565279     0.26354409     0.23176824
O      -3.89678548     6.22541600    -7.88620417    -1.16090169     0.92430045    -0.84105989
O      -7.96124784     6.44744260    -4.04131974     1.35230442    -0.38721702     0.50431399
O      -7.86617192     6.27209957    -7.96678880     0.49225570     1.15258226    -0.14091830
O      -3.78673236     4.34692527    -2.10214538    -0.38241156     0.25724058     0.83392898
O      -3.83991077     4.24263577    -5.94037274     0.11047775    -0.36329930     1.24388039
O      -7.98968778     4.52708980   -10.01099058     0.49618264    -0.26575065     1.05206158
O      -7.97531438     4.36732137    -5.96652494     0.19922548     0.01908543     0.27658910
O      -7.94156083     8.68433535    -2.12136662     0.28979187     0.09848697     0.09519726
O      -7.97863306     8.72177129    -6.03932013     0.50790681    -0.00959671     0.19441477
O     -11.68992191     8.67355868    -6.11924994     0.83610273     0.12404814    -0.17704378
O      -7.67054536     0.09734837   -10.14148522    -0.64073780     0.03750298     0.31189294
O      -1.91700104     4.03957757    -4.02335372    -0.54342158     0.02511945    -0.17098425
O      -9.77461822     4.57785160    -3.98171049    -1.13498354     0.22608981    -0.32809657
O      -5.94243394     4.60940229    -4.16373900     0.26052382    -0.20712965     0.66063042
O      -5.82724001     4.26916167    -8.00911169    -0.13762824     0.89808889     0.25652795
O      -1.93965038     0.19476136    -3.94597986    -0.08126918    -0.54444842    -0.14669821
O      -5.77804435     8.49341049    -8.04271809    -0.41851150    -0.96308695     0.22332622
O      -9.86917774     8.34191299    -4.18331911     0.28981796    -0.22436976     1.29119139
O      -5.69481436     0.48854523    -8.12238170    -0.69358059     0.37887337     0.44463345
