# total energy = -631.03607565 eV

CRYSTAL
PRIMVEC
        0.00285542     0.02004370    -7.95977623
       -7.82940539     0.00763210    -3.98158109
       -3.91729101     8.74642787     0.01461334
PRIMCOORD
56 1
Li     -3.88149985     2.53481590    -1.90069906    -0.08298993    -0.51783973    -0.04716918
Li     -3.78868502     1.85199096    -6.01018606    -0.74177628     0.33295034     0.54369948
Li     -7.79493880     2.45529133    -9.95686672    -0.00535568    -0.36552810     0.11105307
Li     -7.89765078     2.08730988    -5.87212837     0.83677324     0.17570698    -0.23239923
Li     -3.94913592     6.53419713    -1.97800847     0.21077882    -0.20326074    -0.08904392
Li     -3.92993877     6.48509697    -5.89238583     0.15759067     0.37162692     0.16271441
Li     -7.91034533     6.25530826    -9.98039697    -0.04830654     0.54671362     0.15694367
Li     -7.72462225     6.48792153    -5.93894015    -0.21214885     0.06251679     0.17280136
Ti     -1.98183711     2.31635951    -3.92899119    -0.36426391    -1.44270913    -0.88201911
Ti     -5.85156307     6.69988116    -7.99741277     0.59705473     0.50168532     0.54518487
Ti     -7.83247596     4.39141622    -7.74856719     1.50031034    -0.65998067     1.11862471
Ti     -7.86937362     4.39437449    -3.82884215     0.11311789     0.12765900    -1.09055684
Ti     -3.79544089     4.30818747    -7.67621369    -0.53020771    -0.08036267    -0.02855487
Ti     -4.06323652     4.47904210    -3.79707654     0.36503948    -0.54237947     0.39575054
Ti     -6.18113168     8.65626651    -2.15682685     1.21536731     0.37936434     0.76266260
Ni     -5.74775463     2.31221139    -7.96857797    -0.44545662     1.67259416     0.65019229
Ni     -5.88200297     2.12461764    -3.90071702     0.18794350     0.24266506    -1.76688884
Ni     -9.70218448     6.66239004    -7.87804092    -0.59369733    -0.17954525     0.08934290
Ni     -9.83719561     6.50944409    -4.01599248     0.50015152     0.13715519    -0.40853674
Ni     -1.95516363     1.97708867    -7.96618411     0.24620830     0.56613453     0.48736450
Ni     -5.97569211     6.62459453    -3.97438864     0.80290056    -0.06342787    -0.94391357
Ni     -2.02468291     0.01973840    -5.94125352     1.58184400    -0.65319051     0.12986687
Mo     -5.97655674     0.11245757   -10.20715651    -2.02055556     1.15461906     0.02953253
Mo     -9.75303025     8.62071437    -6.25546821    -0.48743853     2.23267136    -0.91023432
O      -1.99607569     1.91991878    -2.01423438     0.20664683    -0.52879143    -0.11056719
O      -1.86440836     1.90816311    -5.95470457    -0.93275363    -0.76896338     0.14465933
O      -5.96858057     6.73762929    -2.07295441     0.23718836    -0.06436014     1.20126504
O      -5.82443524     6.90642172    -5.95459839    -0.26832324    -0.11678669    -0.42123091
O      -5.74956668     2.03978042   -10.01862056    -0.53417666    -0.05390930     0.42251815
O      -5.76151818     1.97999954    -5.80455277    -0.61319635    -1.40192033     0.03486248
O      -9.74084868     7.07635276    -9.69836210    -0.15479003    -1.33104697     0.16335749
O      -9.67975396     6.74400571    -6.02437732    -0.39532564    -0.35118954     0.45917605
O      -3.97401107     2.42018883    -3.95644283     1.25357196     0.20068446    -0.17536832
O      -3.79924540     2.30955556    -7.82637826    -0.41673231     1.28581286    -0.71340947
O      -8.01058559     2.50006564    -4.02237866     1.38538973    -1.38166428     0.33751133
O      -7.66661053     2.48179091    -7.93344526    -1.38915597    -0.47462878    -0.17873263
O      -3.71751389     6.38428966    -3.90594079    -0.31091384     0.18076530    -0.15435940
O      -3.94152017     6.33270235    -7.98931918    -0.65006134     0.34644458    -0.04191561
O      -7.90291147     6.42633259    -4.04775960    -0.36158502    -0.62802422     0.64732791
O      -7.82013949     6.36401769    -7.94993713     0.59724448    -0.17180876    -0.13006718
O      -3.90832175     4.38148174    -2.02181350     0.23676757     0.46447323    -0.33621159
O      -3.85598725     4.63674337    -5.95940663     0.22469799    -0.62550623     0.43756261
O      -7.83745539     4.37288648   -10.04057375    -0.06782717     0.21375066     1.62943815
O      -7.90266390     4.33366679    -5.98373774     0.24010535     0.60839185    -0.94309876
O      -4.00869835     0.02572133    -2.14178761    -1.21717077     0.27811950     0.18379561
O      -7.83761838     8.66765798    -5.97538361    -1.15116130     0.13914969    -0.25285315
O     -11.57142717     8.67909959    -5.98828196     1.03986545     0.01975243    -0.45941128
O      -7.77327852     0.23014017    -9.88690949     0.72599482    -0.61172053    -0.73597842
O      -1.93416459     4.09333100    -4.04061973    -0.14901350     0.83783443    -0.14748300
O      -9.75346925     4.67419724    -4.02517984    -0.87129565    -0.16754989    -0.11953332
O      -5.90934368     4.61419966    -4.00831640    -0.32529359     0.76349292    -0.34608122
O      -5.76536199     4.27648849    -8.00686166    -0.59111647     0.40957311     0.21771957
O      -5.87649577     8.70280772    -3.94164663     0.18245644     0.72577582    -0.70946112
O      -5.91655943     8.53300709    -8.10568186     0.26828109    -0.59979381     0.15061089
O      -9.95252174     8.42362638    -4.02253611     0.67358745    -0.23238661     0.07936564
O      -5.81631898     0.55021062    -8.05388077     0.23768923    -1.21389297     0.91726464
