# total energy = -630.26959524 eV

CRYSTAL
PRIMVEC
        0.00279571     0.02951795    -7.98606283
       -7.83802570     0.01298533    -3.99532603
       -3.92160916     8.71933433     0.00634407
PRIMCOORD
56 1
Li     -3.72704531     2.11756699    -1.82539636    -1.60083943     0.66215077    -0.23111250
Li     -3.87730271     2.07382892    -5.95229162    -0.16868643     0.35455597    -0.05974607
Li     -7.86624478     2.37782830   -10.03388711     0.16161142    -0.00761961     0.19822625
Li     -7.97361136     2.37013520    -5.93573845     0.87265088    -0.20529553     0.11393159
Li     -3.72849823     6.14555103    -1.97122284    -0.47855622     0.65382544     0.19636181
Li     -3.90922337     6.56142870    -5.83398220     0.30352764    -0.10491552    -0.35056021
Li     -7.88603377     6.41443129   -10.01279318     0.04618679     0.04815658     0.95388668
Li     -7.78761808     6.61865491    -5.82265037     0.05766569    -0.46930479    -0.21745823
Ti     -1.97366655     2.03308445    -3.97426458     0.48902919    -0.18387936    -0.87110173
Ti     -5.77763655     6.51597327    -7.90054293    -0.46907337    -0.34220526    -0.28389195
Ti     -8.09737808     4.45815183    -7.78621645     1.13008791    -0.40571626    -0.61503573
Ti     -7.92927837     4.38115125    -3.75337484     0.43842302     0.74407362     0.83345853
Ti     -3.87616956     4.32316106    -7.74411655    -0.05306433    -0.04907338     1.90707396
Ti     -4.04965120     4.35925887    -3.82396297     0.25842956    -0.63634557     0.47876671
Ti     -6.18904382     8.58936761    -1.85858510     1.78005368     0.53572632    -1.05932611
Ni     -5.82614451     2.38135857    -7.98429053    -0.87878777     0.47494060     0.31930060
Ni     -5.82197705     2.29069745    -4.15423835     0.05307963     0.20388482    -0.43632527
Ni     -9.82048503     6.65306858    -7.98333830     0.28961952     0.15494220    -0.14975102
Ni     -9.70914384     6.45836853    -4.01808968    -0.55289755    -0.01741607     0.30885849
Ni     -2.02356852     2.16106008    -7.94402704     0.83530210    -0.43646968     0.18571935
Ni     -5.88057397     6.57701586    -3.97387499     0.83916229    -0.11224081     0.33291727
Ni     -5.93304805     8.70060323    -6.05206647     0.54030333     0.06232956     0.76186396
Mo     -5.96943130     0.16394761   -10.29432900    -2.14126092    -0.90431361     0.46548879
Mo     -9.72675004     8.64679476    -6.37772003    -2.90891885     1.43537246    -1.48502761
O      -2.00288027     1.80518538    -1.82706681     1.11550736     0.98182600    -1.17986669
O      -1.96917712     1.81404843    -6.06211382     0.44123261     0.04678770     0.51785142
O      -5.85642522     6.73892139    -1.93014184     0.57070176    -0.48689608    -0.33438939
O      -5.86828525     6.82976344    -5.92737163    -0.24109935     0.55664660    -0.40077915
O      -5.78064163     2.01495956   -10.31379903     0.12367434     0.28458979     1.14787558
O      -5.79704550     2.06486512    -6.00192312    -0.35148198    -0.38674261     0.27971443
O      -9.79026310     6.98515875    -9.83508551     0.15103847    -0.94795659     0.36397365
O      -9.73279655     6.74974486    -6.10390416     0.13610037    -0.09517279     0.52424840
O      -3.84233704     2.35501491    -4.04072382    -0.90961043    -0.28302540     0.28797410
O      -3.93029576     2.37304061    -7.82055362     0.18126744     0.64821944    -1.03275804
O      -7.70718696     2.55573107    -3.99144710    -0.40092599    -1.62723509    -0.34617113
O      -7.79106193     2.53428286    -8.12349207    -0.47477600    -0.65030351     1.05904530
O      -3.89261047     6.29783758    -3.97121643     0.50346453     0.62181637     0.48809616
O      -3.86180230     6.43131231    -7.91367858    -0.33738166    -0.87324848    -0.42872058
O      -7.74536751     6.33137440    -3.82572564    -0.88722528     0.80481053    -1.54796266
O      -7.75541545     6.34711847    -8.05250396    -0.99666713     0.47140115     0.72361344
O      -3.96320092     4.30762537    -2.00539113     0.36838949    -0.16140269    -0.50772173
O      -3.74501537     4.43103155    -5.95065720    -0.09350872     0.07244318    -1.32884783
O      -7.76636628     4.47965458    -9.92597254    -0.27012226    -0.45821405    -1.31452104
O      -7.93835017     4.47724867    -6.04305459     0.11065477    -0.10568670     0.61324043
O      -7.92372538     8.73768559    -9.79097576    -1.77884574     0.36767959    -1.05542625
O      -4.04980280     0.16787901    -5.98092846     0.34009918    -1.08416151     0.11015728
O      -7.56224141     0.18702808    -5.96844142     1.21102429    -0.63812094    -0.26259161
O      -7.74786233     0.05521821    -9.93569064     0.52779307     0.47692100    -0.92206444
O      -2.05150488     4.02038147    -4.11645571     0.27273254    -0.13803632     0.66615760
O      -9.78696842     4.49260702    -4.11566470     0.00460097     0.68874672     0.32095775
O      -5.88093599     4.58690947    -4.17911811    -0.56143400    -0.08848638     0.28152551
O      -5.82377295     4.41409946    -7.82416657     0.16917639     0.38652887    -0.61632266
O      -1.99971411     0.09825035    -3.84626549     0.14611626     0.49390410    -0.62986647
O      -6.01269237     8.46371297    -7.99995597     1.04652913    -0.62994934     1.43807237
O      -9.80689448     8.37889734    -4.03142697     0.63517122    -0.15528885    -0.09907473
O      -5.89958988     0.53462681    -8.21241916     0.38123192     0.35044438     1.90067523
