# total energy = -630.38869432 eV

CRYSTAL
PRIMVEC
        0.00285542     0.02004370    -7.95977623
       -7.82940539     0.00763210    -3.98158109
       -3.91729101     8.74642787     0.01461334
PRIMCOORD
56 1
Li     -4.01346183     2.39133676    -1.87028194     0.31328114    -0.30314251    -0.41692388
Li     -4.06857288     2.39762070    -6.03075472     0.44864556    -0.11310355     0.42813399
Li     -7.75420585     2.25776696   -10.04746832    -0.09527469    -0.08643242     0.24996247
Li     -7.91176006     2.14792094    -6.01815052     0.60545973     0.09199468    -0.03018954
Li     -3.91613956     6.84120268    -1.86187955     0.18352053    -0.38409297    -0.73132902
Li     -3.92167051     6.50497100    -5.84818275    -0.19581135    -0.16732842    -0.75062909
Li     -7.81633755     6.31492186    -9.90083269     0.03299682     0.39922579    -0.08430833
Li     -7.85334352     6.60825478    -5.75869012     0.41170614    -0.19525309    -0.82383184
Ti     -1.91835696     2.31487441    -4.14337452    -0.93918584    -1.94802431     0.31129520
Ti     -5.78673414     6.62813788    -7.99647851    -1.40048995     0.40587953     0.47898681
Ti     -7.74227833     4.42173939    -7.81380683    -1.07541956     0.75456606     0.89327504
Ti     -7.90172501     4.28703223    -3.77268787     0.58945671     0.38499824    -0.19824862
Ti     -3.88618620     4.40161613    -7.78267920     0.43255071    -0.62492447     0.58877981
Ti     -4.06266645     4.37214629    -3.73326463     0.61404456     0.71771969     0.05850516
Ti     -2.12587356     0.12638979    -1.94967230    -1.11602540    -0.44798421    -0.01205005
Ni     -5.92944243     2.37510642    -8.05405503     1.58318302     0.50199600     0.48898476
Ni     -5.91739067     2.11094691    -3.93945244     0.67825758     0.48162435    -1.90266533
Ni     -9.79738968     6.60009054    -7.88165820    -0.31023333     0.07169200    -0.14986617
Ni     -9.70482191     6.49325633    -4.00174707    -1.01847171    -0.72350032     0.38414280
Ni     -2.02037714     2.05478397    -7.93899857     0.02914974     1.03229922    -0.05038548
Ni     -5.87112009     6.63934704    -3.93772671     0.15245048     0.28975680    -0.32703054
Ni     -5.86235620     8.74310083    -5.95645827    -0.16942525    -0.29698952     0.99150771
Mo     -9.87729561     8.62151920   -10.11771724     0.43027839     0.73114223     0.93178708
Mo     -9.76808465     8.70969838    -6.32132101     0.60731712     1.27804308     0.15323889
O      -2.09957652     1.98438346    -1.84858441     0.74805163     0.65388569     0.10054014
O      -1.90542360     1.80087791    -5.98878834     0.04345176     1.18941257    -0.74456484
O      -5.82360595     6.89269536    -1.94176005    -0.25988514    -0.81858066    -0.80732349
O      -5.86257892     6.96461449    -5.86167779    -0.30665508    -1.07351509     0.01939300
O      -5.85656994     1.96074631   -10.02152392    -0.82394532     0.35683525    -0.63417373
O      -5.82221905     2.04667691    -5.88386187    -1.13331769    -1.30215110    -0.31797724
O      -9.79126876     6.74075076    -9.99215377     0.60837973    -0.05654833     0.91877821
O      -9.82659464     6.81168380    -5.92772376     0.46191350     0.04982503    -0.61688254
O      -3.87330524     2.40437524    -4.03426048    -0.19507165     0.35911665     0.24044697
O      -4.00976494     2.44814717    -7.94495337     0.27467481     0.34497141     0.19513062
O      -7.96946170     2.39984511    -4.22333995     0.49972807    -0.57225764     2.10306431
O      -7.74659829     2.46534161    -7.97747146    -1.17915711    -0.37300823    -0.33384176
O      -3.95784607     6.43701235    -4.09040812     0.72020351    -1.01952220     2.05970932
O      -3.90282571     6.35146003    -8.01758229     0.56839456     0.73733623     0.46498156
O      -7.83819214     6.23507012    -3.93366902     0.69302274     0.88522665     0.08355119
O      -7.77282733     6.42801274    -7.89084797    -0.53742873    -0.20157046    -0.73153751
O      -3.71013959     4.37428116    -1.99822941    -0.76925316     0.28448256    -0.50266189
O      -4.01736904     4.54735774    -6.01609863     0.61476270    -0.63096122    -0.13996909
O      -7.75678009     4.42340142    -9.95357856    -0.41140012    -0.55446866    -0.32167768
O      -7.81005399     4.50993834    -6.08604005     0.13035309    -0.14641824     1.00691211
O      -3.99089122     0.09322114    -9.89215629    -0.80114461    -0.93018302    -0.16775807
O      -7.95596266     8.74065370    -5.90466194    -0.66738895    -0.12825444    -0.62163966
O      -7.64325385     0.06029969    -5.90965714     0.41056070    -0.03143235    -0.43642156
O     -11.68191745     8.65423769    -9.94083145     0.66455240     0.33984619    -0.20927902
O      -1.93188753     4.10783458    -3.98574918    -0.08897879     1.42601519    -0.65071018
O      -9.77802481     4.36660855    -3.97876976    -0.21672694     0.48283613    -0.03347216
O      -5.88827027     4.13149767    -3.94741171    -0.61644617    -0.54983378    -0.11702470
O      -5.84684016     4.52145241    -8.08904128     0.51075759    -0.34634810    -0.06596467
O      -1.86040401     0.35929202    -3.73349779     0.15085062    -0.29760124    -2.06293076
O      -5.85060968     8.49406689    -7.95827011     0.21044924     0.36900225     0.53796722
O      -5.84501567     0.14759130    -3.96330804    -0.10991094     0.59765121    -0.12748834
O      -5.89355432     0.59644104    -8.14649221    -0.05069683    -1.41668029     1.20759358
