# total energy = -630.68446056 eV

CRYSTAL
PRIMVEC
        0.00285542     0.02004370    -7.95977623
       -7.82940539     0.00763210    -3.98158109
       -3.91729101     8.74642787     0.01461334
PRIMCOORD
56 1
Li     -3.97859376     2.46068243    -1.91998872     0.59801465    -0.40371297    -0.43773287
Li     -3.88696897     2.14727158    -6.00702295    -0.46990985     0.02125381    -0.33347232
Li     -7.76089799     2.18969195    -9.99568573     0.08240812     0.37731605    -0.08556945
Li     -7.93784105     2.29033655    -5.95308479     0.58959027    -0.16045230    -0.17595232
Li     -3.84976780     6.33640178    -1.89711123    -0.12470005     0.39364766    -0.23186404
Li     -3.80098536     6.58012316    -5.85925006    -0.47958755    -0.39076470     0.04618488
Li     -7.88476595     6.33146026    -9.79595052     0.38203036     0.30050553    -0.21474313
Li     -7.79978821     6.81061397    -5.91652972    -0.23147518    -0.28208538     0.26854875
Ti     -2.07814110     2.28625076    -4.10649917     0.11027072    -1.14088740     0.60724274
Ti     -5.84048343     6.75894798    -7.92275999    -0.55425700    -0.57705723     0.60260174
Ti     -7.92466106     4.35890034    -7.76853539     1.67943180    -0.22471716     0.32653243
Ti     -7.83815084     4.42757252    -3.74262810    -0.49915966    -0.29965665    -0.30626025
Ti     -3.85218219     4.41892424    -7.68262762    -0.83056938    -0.64078906     0.80619193
Ti     -4.08913299     4.43560569    -3.78230461    -0.62586275    -0.05720682    -2.18124953
Ti     -6.01622575     8.73250673    -2.20585424     0.85314106     0.63231080     0.63387711
Ni     -5.80415691     2.45170568    -8.10769909    -0.20436310     0.57201294     0.55080157
Ni     -5.92576837     2.10228920    -4.03969963    -0.13629836     0.98959487     0.79250095
Ni     -9.74386240     6.45641201    -7.81748676    -0.79605887     0.44765079    -0.21024325
Ni     -9.79341743     6.62381670    -3.96134295    -0.24867142    -0.54570869     0.05170860
Ni     -1.89130167     2.20470966    -7.99455698    -1.54387151    -0.19680772    -0.15302788
Ni     -5.95292280     6.50999351    -3.88178497     0.19109750     0.74234317    -0.66173320
Ni     -5.72543317     8.68643290    -5.98681725    -1.03596764     0.96051310     0.29987707
Mo     -9.83063602     8.68003592    -9.98011706     0.61092980     0.61836762    -0.92742273
Mo     -5.90408056     0.01520581    -6.36056951    -1.54040896    -0.28589344     1.64943959
O      -1.97286747     1.96872494    -2.05375548    -0.10851998    -0.64347773    -0.36098744
O      -1.80493538     1.88271894    -6.12305526    -0.85230313    -1.05828071     0.98006920
O      -5.92458406     6.82481804    -1.85437951     0.44169103    -1.36250011    -1.74906061
O      -5.91696922     6.83960960    -5.87782972     0.73546842     0.17186446     0.19857449
O      -5.75380517     2.00080134   -10.07158646    -0.98689458    -0.33264529    -0.11665774
O      -5.99906539     1.96850783    -5.85834313     0.82603597    -0.81169930    -1.35506255
O      -9.67218016     6.81531877    -9.78563510    -0.61438272    -0.31953508     0.40173033
O      -9.77958945     6.81450893    -5.95987562    -0.15181071     0.50466817    -0.01465392
O      -3.98656458     2.24311197    -3.93599859     1.54768214     0.82009848    -1.13630471
O      -3.78521023     2.51985181    -8.06403833    -0.64452226     0.01255310     0.99694656
O      -7.97747347     2.46618812    -4.06125852     1.57568026    -0.12564144     0.67716898
O      -7.71724745     2.41275928    -8.10479244    -1.03663632     0.22992023     0.46048475
O      -3.94170794     6.35293590    -3.97632623     0.18470947    -0.45108817     0.75366872
O      -3.91764001     6.42503039    -7.91994645    -0.21415080    -0.07047480     0.31445867
O      -7.92095170     6.38517914    -3.99704713     1.05994751    -0.35119499     0.36561588
O      -7.82294771     6.31663864    -7.81800046     0.19016963     0.32422442    -0.53980814
O      -3.82273704     4.32941205    -2.07988939    -0.08236644     0.53856942     1.22313201
O      -3.76646306     4.31490929    -5.91050567    -0.61951521    -0.04050811    -0.41016433
O      -7.91570597     4.37316021    -9.92633524     0.44836915     0.23880451    -0.94902543
O      -7.88699593     4.22205235    -6.04324170    -0.46660402     0.38924975     0.53542126
O      -7.79727769     8.62983868    -9.94675694    -1.45376827     0.41789992    -0.03291969
O      -4.12118362     0.07251701    -6.04124255    -0.30456272    -0.24495566     0.36462159
O     -11.66993892     8.73785121    -5.79421258     1.46430506    -0.16739427    -1.42319750
O     -11.62413671     8.60563327    -9.93532852     0.81001545     0.21618183     0.38209248
O      -2.03696260     4.14800112    -4.11328116     0.21121397    -0.07926945     0.42555746
O      -9.84812485     4.71978316   -11.89143198     1.78541958     0.21409723    -0.79869390
O      -5.95029742     4.02227676    -4.18868995     0.27797704     0.50148063     1.03323927
O      -5.86138258     4.31021041    -8.04305778     0.31456170     0.68488504     0.16836044
O      -1.86076025     0.17863365    -4.02675453    -0.13655660     0.69915278    -0.76577255
O      -5.93324198     8.53516914    -7.96470883     0.27645923     0.51647947     0.94386336
O      -5.89758932     0.23951363    -3.85205258     0.32412933    -0.73506638    -0.21631030
O      -5.74820104     0.63861833    -8.08972631    -0.53610971    -0.28352905    -1.02392424
