# total energy = -630.41171769 eV

CRYSTAL
PRIMVEC
        0.00279571     0.02951795    -7.98606283
       -7.83802570     0.01298533    -3.99532603
       -3.92160916     8.71933433     0.00634407
PRIMCOORD
56 1
Li     -4.01223799     2.23004013    -1.79782224     0.18308634    -0.02636519    -0.44752762
Li     -4.08328422     2.52104278    -5.91845175     0.39925126    -0.23997803     0.30523952
Li     -7.71384705     2.40496943    -9.94877088    -0.20383342    -0.47428397    -0.18533560
Li     -7.78919421     2.35127824    -5.94644699    -0.44327572    -0.05897384     0.18670151
Li     -3.88010416     6.32297424    -1.95565049     0.02191577     0.53287231     0.14462237
Li     -4.02001778     6.81936192    -5.76721426    -0.00756226    -0.74916155    -0.11577872
Li     -7.77680404     6.56275265    -9.86702915    -0.41642411    -0.24981461    -0.62234969
Li     -8.02323326     6.28579493    -5.95452820     0.16438930     0.61361117     0.06559051
Ti     -1.94244074     2.09723378    -4.06495509    -1.32264000     1.00421726    -0.13705744
Ti     -5.84879826     6.60544042    -7.96444683     0.03168961    -0.74378009    -0.02803998
Ti     -7.83818454     4.41868952    -7.75174036     0.20527270     0.19186427    -0.39767453
Ti     -7.79484699     4.33303607    -3.73012783    -2.02250246     0.01915908     0.77632651
Ti     -3.86697030     4.33691457    -7.68396153     0.17414544     0.61208142     1.15729840
Ti     -4.06776681     4.45316245    -3.64206918     1.82624062    -0.55300408    -1.49218415
Ti     -1.73343088     0.04184878    -2.06853332     1.29845594     0.58554752     1.49024677
Ni     -5.89209173     2.20607154    -7.91445452    -1.52795022    -0.29967141    -0.47327807
Ni     -5.93509601     2.40333465    -3.98363565    -0.02001442    -2.75546851     0.53538691
Ni     -9.77115373     6.37613061    -8.15589781    -0.69558766    -0.15805631     1.56273397
Ni     -9.78832073     6.61819084    -4.04356244    -0.35075445    -0.10350197     0.33231395
Ni     -1.96859566     2.03376286    -7.94145341    -0.02787134     0.46155533    -0.52707246
Ni     -6.06551062     6.61902200    -4.11843179     1.68647496    -0.00592390     0.72624347
Ni     -2.06894280     0.07569011    -6.01072947     0.39645442     0.15319928     0.33783596
Mo     -9.77932835     8.55867145   -10.38289477    -1.79739658     3.00634287     0.05570907
Mo     -5.75983690     0.12445999    -6.31228459    -0.56994173    -0.77801854    -0.38008842
O      -2.00773592     2.00841163    -1.91427346     0.17560169    -1.11416107    -1.01108503
O      -1.98909229     1.87832176    -6.05438337     0.02869336     0.63059468     0.91508188
O      -5.96028970     6.84105726    -1.90527984     0.71034726     0.61381989    -0.76136384
O      -6.05269300     7.00727992    -5.98236593     0.49688050    -0.90683168    -0.10194495
O      -5.89087071     1.89199935    -9.80245471    -0.10107841    -0.14198744    -0.66749476
O      -5.92894037     2.02147379    -6.01561103     0.18350383     0.53614792    -0.13773538
O      -9.77503039     6.72673425   -10.10773306    -0.03649638    -1.26994968    -0.28653279
O      -9.89645236     6.91456491    -5.87870378     0.59349861    -0.30925881     0.07098521
O      -3.91070366     2.51866287    -3.97165356     0.74057021    -0.78643381     0.00268670
O      -4.16100742     2.43670566    -7.87178084     1.46053961    -0.50654227    -0.11414256
O      -7.89026528     2.37326130    -4.00847860     1.30736279     0.59941274     0.54747706
O      -7.85793689     2.51691547    -8.08054706    -0.36171157    -0.65435650     0.95247190
O      -4.04053786     6.32215936    -3.87493519    -0.03138754     0.90246775    -0.86527555
O      -3.92363464     6.29918645    -7.94028331     0.36670577     1.27770379     0.03238421
O      -7.83271088     6.29074023    -4.01897335    -1.62218398     0.45228303    -0.05643343
O      -7.83383207     6.36610890    -7.99758921    -0.11501845     0.16662742     0.50473684
O      -3.86192793     4.45018587    -1.92992466     0.03903319    -0.45233834     1.36322031
O      -4.11123686     4.45179045    -5.89879218     0.41426015    -0.05068548    -1.28489918
O      -7.87745652     4.54598404    -9.94462931     0.08154226    -0.53425209    -0.82780401
O      -7.75703775     4.43179784    -5.97638304    -0.09631966    -0.32454518    -0.15778752
O      -4.12043832     0.05493632   -10.05148704     0.75215825    -0.27728065    -0.18566143
O      -4.02633236     0.11223644    -5.95793005     0.47841234     0.18727308    -0.17594894
O      -7.68972134     0.21224842    -6.22650678    -2.25080331    -0.35248316     0.26834053
O     -11.56081636     8.66211772    -9.77527053     0.21493129     0.35034187    -0.84690143
O      -9.79184741     4.46260166    -8.01112915    -0.06469863    -0.22161223    -0.04797334
O      -2.01037541     3.89968910    -7.90743038     0.45713264     0.34515918    -0.00586101
O      -5.91459447     4.21833102    -3.82098846    -0.66068241     0.19425830    -0.56073681
O      -5.83157926     4.65775082    -8.10604504    -1.03902109     0.88383505     0.43248975
O      -1.95511677     0.25512454    -3.93455442    -0.51197242     0.25081749    -0.81246237
O      -5.79205053     8.74441319    -8.07708187    -0.19914978    -0.28078877     0.08860758
O      -6.15333296     0.28639872    -4.18131386     1.03604438     0.83574791     1.18637557
O      -9.75314867     8.22996725    -8.02665070     0.44941165    -0.52527866    -0.24348701
