# total energy = -630.71146096 eV

CRYSTAL
PRIMVEC
        0.00285542     0.02004370    -7.95977623
       -7.82940539     0.00763210    -3.98158109
       -3.91729101     8.74642787     0.01461334
PRIMCOORD
56 1
Li     -3.95780794     2.41329014    -1.92254071     0.30455168    -0.27973059    -0.13055538
Li     -3.99022539     2.20886348    -5.90594342     0.09931404    -0.10157062    -0.40353027
Li     -7.94233720     2.25529429   -10.01060325     0.36564455     0.31393113     0.12073404
Li     -7.88616137     2.12504991    -5.95063145     0.34266711    -0.01701777     0.13117343
Li     -3.85093478     6.15446455    -1.93847832    -0.35059122     0.96726457     0.24430654
Li     -3.82688890     6.36552348    -5.92627562    -0.21654262     0.30103418     0.36851353
Li     -7.93467930     6.63273292    -9.89064159     0.13300108    -0.28029728    -0.07303145
Li     -8.00154297     6.33667016    -5.84739042     0.35019144     0.63150860    -0.18834257
Ti     -1.94265718     2.12801036    -3.99986252    -0.79048998    -0.61232304     0.70277595
Ti     -5.89504974     6.56695598    -7.88454440     0.20738437     1.16442139     0.50023961
Ti     -7.85180848     4.40145600    -7.79149023    -0.12620790    -0.59393105     0.76553907
Ti     -7.68329961     4.45391541    -3.71014224    -0.23485328    -0.64402846     0.65277341
Ti     -3.80664371     4.41570200    -7.70869813     0.76324116    -1.91625767    -0.02732079
Ti     -3.85715164     4.47312983    -3.89358325    -0.20599058    -0.96509085     1.08602598
Ti     -6.03164859     8.59752465    -1.98474262    -0.82404584     2.09928999    -1.17295357
Ni     -5.90972224     2.36962733    -8.09265512     0.58168086     0.48806042     0.96801417
Ni     -5.87988560     2.30310579    -3.96020445    -0.15209554    -0.07060623    -0.15136323
Ni     -9.84843591     6.60001289    -7.90701132     0.51412205     0.51127827    -0.31163279
Ni     -9.68987761     6.47943940    -3.96140597    -0.85914697     0.45709390     0.01847139
Ni     -1.95297937     2.18814842    -7.86065609    -0.02326526    -0.23511269    -1.04033402
Ni     -5.81764641     6.59280069    -3.86437932    -0.06618614     0.17941903    -1.18772699
Ni     -5.89221658     8.64424662    -5.90573877    -0.25126355     0.02948246    -0.26652127
Mo     -6.05938688     0.16545943   -10.26318946     1.80554101    -0.12280426    -0.13073363
Mo     -9.76692919     8.71323781    -6.35148884    -0.75756537    -0.18503785     0.57614215
O      -1.95342585     1.85197780    -2.01291795     0.08171813     0.08385843     0.33022690
O      -1.94764958     1.77396437    -6.03454309    -0.57791913     0.01429338     0.43211935
O      -5.72761122     6.67322852    -1.93063489    -1.10972479     0.53618662     0.22636368
O      -5.78441613     6.78339686    -5.83540113    -0.58713074     0.27487916    -0.39240724
O      -5.91160750     2.12021685   -10.05153761     0.09487824    -0.66533139    -0.33159488
O      -5.85492179     1.78420923    -5.76679009    -0.20494366     0.18747428    -0.28893443
O      -9.74962582     6.93514620    -9.75238893    -0.74303113     0.84691377    -0.40625312
O      -9.95151378     6.73141949    -6.07835963     1.53677409     0.57841463     1.00617680
O      -3.97672839     2.42416201    -4.02784697     0.72202169     0.11281697     0.54651769
O      -3.89582794     2.38677860    -7.87947857     0.28425796     1.32100336    -0.52221052
O      -7.81545364     2.48593793    -4.04420662    -0.46485453     0.19519258     0.65531839
O      -7.86091293     2.38201014    -7.99742197     0.28852198     0.21777651     0.05723622
O      -3.86481544     6.46959459    -3.95092193    -0.23340602    -1.28655104    -0.31998635
O      -3.94589908     6.33784905    -7.82685627    -0.08348174    -0.28203961    -0.72469075
O      -7.75411672     6.40082400    -3.91360479     0.14151200    -0.37096498    -0.02911707
O      -7.89667766     6.38527983    -7.95085030     1.05380664     0.04552787     0.31555356
O      -4.07224870     4.38148853    -2.07286790     0.44291885    -0.51280106    -0.39895906
O      -4.05682312     4.35997620    -5.96104323     0.44871154     0.23956762     0.34730472
O      -7.79870178     4.48173075    -9.85851675    -0.13089847    -0.18531219    -1.59119511
O      -8.16533515     4.49165311    -6.04375045     0.51907459    -0.31803651     0.21729958
O      -3.96323379     0.14132503    -2.14457800     0.41906623    -1.12474102     0.79435682
O      -7.90146840     8.61628579    -5.96952755    -0.99329617    -0.22583890    -0.46695684
O     -11.61470656     8.75130945    -6.25700773     0.77287196    -0.09054105     0.84442275
O      -7.78753144     0.21072175    -9.97646007    -0.04205206    -0.71133817    -0.20917065
O      -1.95583693     4.04074526    -4.10594028    -1.07068409     0.17898217    -0.26915271
O      -9.74865128     4.68105191   -11.77828798    -0.00654449    -0.61165536    -0.40828226
O      -5.83756695     4.34549226    -4.17471232    -0.65466681     0.43898264     0.61201038
O      -5.92975730     4.23864971    -7.83902098     0.31568998     1.13373591    -0.33430139
O      -1.95745117     0.14914025    -3.96308692     0.13122085     0.05866231     0.01231123
O      -5.74685592     8.42935375    -7.92974937    -0.60692939    -0.73971461    -0.29434377
O      -9.78351223     8.28274259    -4.01293293    -0.36761381     0.74239290     0.15609580
O      -5.80569689     0.57559496    -8.12739541     0.12864930    -0.72792121    -0.43366713
