# total energy = -630.64234040 eV

CRYSTAL
PRIMVEC
        0.00279571     0.02951795    -7.98606283
       -7.83802570     0.01298533    -3.99532603
       -3.92160916     8.71933433     0.00634407
PRIMCOORD
56 1
Li     -3.96413545     2.34672063    -1.88477206    -0.06130169    -0.38314815    -0.22224097
Li     -3.95600557     2.30369702    -5.98947360    -0.14668741    -0.41113382     0.10345255
Li     -7.89464235     2.20874850   -10.03421586     0.86354853    -0.06035045     0.22527167
Li     -7.92995587     2.47646602    -5.87884185     0.57367156     0.04282751    -0.42226033
Li     -3.90049185     6.34985491    -1.81843079    -0.12345604     0.07407743    -0.23605727
Li     -3.98547738     6.58926956    -5.84496437     0.59695987    -0.00058533     0.09742055
Li     -7.85725048     6.42135283    -9.84854374    -0.17171718     0.45700986    -0.39225039
Li     -8.04504546     6.38758160    -5.85642380     0.84447444    -0.07161686    -0.22140024
Ti     -2.06427451     2.21358237    -3.97564003    -0.02481583     0.71564030    -0.37990078
Ti     -5.95648377     6.71705209    -7.91236589    -0.14923722    -0.42684711    -0.24013930
Ti     -7.78425328     4.39617699    -7.81873455    -0.17472151    -0.65421678     1.62168263
Ti     -7.77689833     4.46463890    -3.66779313    -1.21653633    -1.25319671    -3.13604678
Ti     -3.95684754     4.36081897    -7.57957264    -0.06035688     0.41079877    -1.60370407
Ti     -4.09013306     4.47713685    -3.70490373     0.46150692    -2.75329694    -0.49218394
Ti     -1.77830203     0.04458297    -2.11724115    -0.29974297    -0.89499126     0.36728055
Ni     -5.97438251     2.20153036    -8.05443930     0.94580289    -0.29574232     0.27946691
Ni     -5.96224759     2.26072069    -3.97496229     0.98394586     0.69687051    -0.95206623
Ni     -9.83138211     6.35386611    -7.90016081    -0.55728909     0.01498722    -1.08222245
Ni     -9.86130151     6.48266770    -3.98262877    -0.38217013     0.06785459     0.96763705
Ni     -1.93232694     2.30260961    -7.94778178    -0.35352523    -0.30481939    -0.12556429
Ni     -6.04163156     6.66723936    -3.98377238     0.42044558     0.40452106     0.18146836
Ni     -5.68599458     8.73186036    -6.05084271    -0.62639731     1.27656039     0.58635581
Mo     -9.77651530     8.66888259   -10.45043704     1.31077698    -0.69551928     3.39321585
Mo     -5.82535708     0.02796449    -6.36550245     0.30717515     2.03662702    -0.23223372
O      -1.92740629     1.96839538    -2.02038936    -0.53253376    -0.09782730     0.07631219
O      -1.83762157     1.85569768    -6.00547677    -0.88113690     0.00212324    -0.23274030
O      -5.99613848     6.78571318    -2.04194823     0.48708682     0.46437932     0.12547677
O      -5.82828344     6.92853794    -5.96409161    -0.78827214    -0.44537682     0.47571668
O      -5.91439747     1.89161904    -9.95555297    -0.07706143     0.45995065     0.62481262
O      -5.95704181     2.02382152    -6.17859142    -0.37201862    -1.00987867     0.43487698
O      -9.77380168     6.75662436   -10.03460767    -0.35894363    -0.32944705    -0.47247109
O      -9.81105456     6.85655738    -5.88123763    -0.80425718    -0.44085827     0.82008710
O      -3.99781811     2.43702813    -3.99009335     1.11717493    -0.94869940    -0.14803697
O      -3.97495720     2.51114300    -7.99991235    -0.47595552    -1.14378606     0.50810026
O      -7.83816200     2.38782995    -4.03568105    -0.61215823     0.89023956     0.73488063
O      -7.87080253     2.40245246    -8.02160625     0.09544928     0.53116856     0.16072820
O      -4.01133710     6.26137563    -3.89448725     0.36659803     2.47152654    -0.18291297
O      -3.96034882     6.28896088    -7.80416042     0.62581444     1.07742399    -1.10031003
O      -8.01821759     6.35543979    -3.92362830     1.07284606     0.11561042    -0.25640315
O      -7.92448845     6.41659440    -7.95542573     0.46308396    -0.44144102     0.14969345
O      -3.73232224     4.21142535    -2.01559234    -0.61047082     1.12930161     1.00946091
O      -3.90926650     4.29756915    -5.85545530     0.31369066     0.11098619     0.74451460
O      -7.52239216     4.36022541    -9.98621758    -0.55662947     0.12027881     2.75782470
O      -7.72353502     4.51254001    -6.02999858    -0.15748848    -0.52102294    -0.60035656
O      -4.04528521     0.06004489    -2.14924101    -0.64957280    -0.36822481     0.21618917
O      -4.08462467     0.18721576    -6.08278452    -0.31582111    -0.52936863    -0.27912524
O     -11.73341579     8.71596476    -6.00026425     0.57902321    -0.00237529    -0.00055141
O     -11.54409646     8.71943586    -9.98441894    -0.92193494    -0.22434079    -0.35126781
O      -1.90758424     4.18819631    -3.87601697    -0.63897571     0.74405763    -1.11460456
O      -1.94663588     4.21519181    -7.88045856     0.35141641     0.17412415     0.10704648
O      -5.90503486     4.15771410    -4.07172898    -0.63301607    -0.49254001     0.24581521
O      -5.89784272     4.74490750    -8.00347096     0.93270525    -0.20962417     0.10804618
O      -1.91023406     0.21778775    -3.98195396    -0.30795799     0.45686705    -0.70402559
O      -5.92598940     8.58866453    -8.06044502     0.22956634     0.18740302     0.51842668
O      -5.92024000     0.37704029    -4.14519702    -0.18235486     0.45314500    -2.64628346
O      -9.92190303     8.21079173    -8.07731820     0.46509716    -0.00450468     0.47310099
