# total energy = -630.36718001 eV

CRYSTAL
PRIMVEC
        0.00279571     0.02951795    -7.98606283
       -7.83802570     0.01298533    -3.99532603
       -3.92160916     8.71933433     0.00634407
PRIMCOORD
56 1
Li     -3.99891663     2.21967145    -1.93007908     0.28431051     0.29667786     0.36495501
Li     -3.88768613     2.13256038    -5.99071934     0.02727306     0.35321680    -0.26439496
Li     -7.86043027     2.13760030   -10.06668958     0.35820170     0.57647858     0.66688753
Li     -7.82437148     2.40803868    -5.94112831    -0.25623457    -0.16694994     0.46520139
Li     -3.89948687     6.88763921    -2.09593583     0.29913678    -0.52369996     0.18293871
Li     -3.96403459     6.31284063    -5.89319479    -0.04469426     0.17867072    -0.25427732
Li     -7.94307518     6.72007615    -9.91788201     0.03932945    -0.51202088    -0.10966327
Li     -7.81748150     6.95622820    -5.71781520     0.01808265    -0.20990490    -0.63712532
Ti     -1.97786102     2.20154766    -4.11415427     0.97838723    -0.56695106     1.00625386
Ti     -5.81274478     6.56580610    -8.13025787    -0.22153719    -0.69216168     1.16942821
Ti     -7.81866533     4.54407996    -7.58816589    -0.26554366    -0.60102496    -0.07829757
Ti     -7.77027050     4.37359835    -3.63316945    -0.25749512    -1.04271440    -0.18482344
Ti     -3.64636837     4.34672869    -7.79574353    -1.93711158    -0.48972508     1.37042741
Ti     -4.06524136     4.37615741    -3.73642723     1.18956487     0.61064125     0.81592990
Ti     -2.30657721     0.07876008    -2.02716779     0.62035039     0.54458104     0.29809139
Ni     -5.97830666     2.26007524    -7.92121604     2.11489156    -0.04011282    -0.19321757
Ni     -5.77584501     2.20552740    -4.02409507    -1.50640080     0.99285269     0.17768967
Ni     -9.82960323     6.39778330    -7.91583655    -0.37021589     0.21855098    -0.49679093
Ni     -9.66173938     6.59946204    -4.04659048    -1.56196817     0.21228133     0.07119470
Ni     -1.92168742     2.02989509    -7.99776487     0.43009102     0.10041592    -0.18153809
Ni     -5.94436168     6.57123383    -3.99443668     0.26466701     0.37043061    -0.38290911
Ni     -5.80501565     8.71995823    -6.01747807    -1.75611915     1.05793887    -0.24286817
Mo    -10.01067001     8.73058268   -10.28087228    -0.50255302    -2.20532027     2.50971307
Mo     -5.88734089     0.25650252    -6.37257034     0.78707206    -2.14587178    -1.87634218
O      -1.87328525     1.90889671    -2.06531537    -0.53596659     0.70890722     0.59308668
O      -1.88690570     1.92988189    -6.03807095    -0.31798345    -0.76177625     0.65003303
O      -5.90862068     6.92298706    -2.07612467     0.54264964    -1.37675174     0.29845666
O      -5.97351929     6.92676314    -6.10676030     0.68092224    -0.38491820     0.77104655
O      -5.81936907     1.79559029    -9.83182250    -0.95540989     0.74043152     1.09896038
O      -5.86956034     2.12149513    -6.01530552    -0.20899062    -0.32800069    -0.08113527
O      -9.82397129     6.81223661   -10.14312792    -0.21878391    -0.51725031    -0.09586138
O      -9.65566714     6.86498476    -5.88351196    -0.76307573     0.29924142    -0.13110383
O      -3.88693812     2.34354958    -3.94066481     0.55781917     0.36086568    -0.81432933
O      -4.01664949     2.37311225    -7.89745738    -0.26140165     0.67158362    -0.53529894
O      -7.74925776     2.31595861    -3.90389613     0.37276667     0.14947809    -0.66389912
O      -7.79390210     2.37652246    -7.99611963    -1.61427001     0.80828112     0.35784641
O      -4.00754198     6.33126844    -3.99478755     0.14052544    -0.63585690     0.60801720
O      -3.92807740     6.34518080    -8.08407679     0.84636742    -0.12393511     0.03085868
O      -7.82914789     6.29699426    -3.87454055     0.26235883     0.52696218    -0.23793695
O      -7.89655409     6.42750978    -8.03505304     0.57900069    -0.81410115     0.41146573
O      -3.95285000     4.14209125    -1.96137252    -0.47191638     0.61462371    -0.28759881
O      -3.95724488     4.35957417    -5.96892630     0.65792603    -0.06813054    -1.61217946
O      -7.69796415     4.29771829    -9.87111600    -0.30691572     0.04094587    -0.27301791
O      -7.79725383     4.36244535    -5.82757971    -0.17391569    -0.08003005    -1.50727376
O      -7.99189187     8.61202939    -9.95682307    -0.76893445     0.86177866    -0.14982203
O      -3.97327802     0.09899644    -6.25942956    -0.70397412     0.50040249     1.06954937
O      -7.61864339     0.02300299    -6.00978014     0.47670300     0.56468993    -0.07774196
O      -3.96163433     8.57859688    -6.10001566     0.99561675     0.73943816     0.16926711
O      -2.00551623     4.42370420    -3.92272235     0.53272833    -0.40041577    -0.24440089
O      -1.86868740     3.91891203    -7.96716120     0.56428716     0.10238304     0.03550904
O      -5.88856909     4.13816988    -4.09826000    -0.12700347    -0.20096759     0.51672383
O      -5.90009491     4.65046891    -7.91604750     0.11749654     1.10694732    -0.33042990
O      -2.12898458     0.26662131    -3.90728569     0.75916271     0.40513051    -1.62388105
O      -5.77471044     8.72040620    -8.08786811    -0.14885127    -0.18615749    -0.28661096
O      -5.85262689     0.32561853    -3.98642975     0.58445862     0.14242158    -2.92240253
O      -9.91015570     8.20957581    -8.14245143     0.11888149     0.86317368     1.30468262
