# total energy = -630.72109449 eV

CRYSTAL
PRIMVEC
        0.00285542     0.02004370    -7.95977623
       -7.82940539     0.00763210    -3.98158109
       -3.91729101     8.74642787     0.01461334
PRIMCOORD
56 1
Li     -3.81074605     2.32621894    -1.72558653    -0.70157236    -0.12188616    -1.09688715
Li     -4.00957658     2.26492592    -6.04429591    -0.16306886    -0.18244742     0.42730880
Li     -7.75999573     2.00814306    -9.92964031    -0.36398784     0.40486888    -0.10633612
Li     -7.71894198     2.33821972    -5.94420472    -0.71269908     0.12313083     0.23714582
Li     -3.94165329     6.75065372    -1.94672901     0.29287250    -0.94494731    -0.11536280
Li     -3.95884456     6.71052945    -5.73093925     0.22345974    -0.23975422    -0.33542456
Li     -7.71830398     6.53617864    -9.88752916    -0.80963179     0.25777690     0.08418456
Li     -8.04408153     6.36510328    -5.91622914     1.18559787     0.17895309     0.30269638
Ti     -2.01630061     1.99423026    -4.05000579    -0.30304633    -0.25905834     0.53909097
Ti     -5.81131643     6.45176442    -7.93090778    -1.19007545    -0.66715262     0.27933532
Ti     -7.98687343     4.42435117    -7.73413490    -0.65798621     0.45929986    -0.93626273
Ti     -7.79140926     4.34887281    -3.62430356     0.01526180    -0.22915846    -0.84690577
Ti     -3.68029124     4.46272782    -7.66287262    -1.16070952    -1.27436301    -0.58353925
Ti     -3.96198595     4.43020154    -3.72770448     0.66283261     0.04327980     0.29374998
Ti     -5.78629807     8.73633798    -1.78826979    -0.38167318     0.47194336    -2.57345398
Ni     -6.01978276     2.48376479    -8.05191867     1.52319865     0.80361978     0.16744251
Ni     -5.88744302     2.24260849    -3.91976198     0.14424834    -0.46916230    -0.81450422
Ni     -9.84042115     6.63312742    -7.93702172     0.70644647     0.20198175     1.10264700
Ni     -9.71174750     6.56247332    -3.96825703    -0.56807961    -0.68004648    -0.26429973
Ni     -1.97731442     2.18259767    -7.93083120     0.37679626    -0.44754245    -0.56442730
Ni     -5.87797516     6.52998897    -3.98613703    -0.13459123     0.63229061     0.32163354
Ni     -5.90266495     8.69512428    -6.01676121    -0.38982383    -0.44290519     0.48178036
Mo     -5.86444162     0.03776479   -10.39577125     2.48994607    -0.04034599     1.02330890
Mo     -9.80156687     8.73867834    -6.34432139     1.24742379    -0.92118405     0.83731457
O      -2.00048705     1.91084830    -1.97348750     0.55209394     0.07877174     0.03138552
O      -1.88224343     1.79792004    -6.14059330    -0.73887636     0.17785766     1.50902836
O      -5.87116878     6.78080724    -1.96100784    -0.37808237    -0.02427859     0.01363939
O      -5.91986379     6.82971266    -5.87178588     0.24678831     0.63740554    -0.72519022
O      -5.84334981     1.97886338   -10.06729136     0.14333352     0.16263074     0.01624288
O      -5.94334636     1.84015101    -5.78566837     0.34074930     0.32660375     0.28815643
O      -9.82150496     6.79500747    -9.76596012     0.64413988     1.18324100    -1.00029618
O      -9.80182732     6.73910365    -6.02438429    -0.75150459     0.90133190    -0.62716681
O      -3.92304180     2.35857208    -4.01172185    -0.48201485     0.48924148    -0.15855677
O      -3.95703311     2.49059032    -7.90058655     0.31293338     1.06606114     0.26008646
O      -7.85278933     2.39823739    -3.94901132     0.09432447     0.24817732    -0.21533596
O      -7.90479582     2.41453056    -7.94595942    -0.20174514    -0.11614980    -0.13440209
O      -3.85294261     6.42629241    -3.83218615    -0.69344606    -0.46197152    -0.97744257
O      -3.95949649     6.35601790    -7.97099235     0.90058193     0.96913171     0.27855088
O      -7.80866819     6.32114030    -3.90305880     0.15594780     0.06798090    -0.04314882
O      -7.87218849     6.44761392    -7.85331526    -0.07493154    -1.04217217    -0.90238343
O      -4.00917894     4.51294018    -1.98937248    -0.07482471    -0.77633257     0.77916698
O      -4.07273930     4.58798793    -5.96300198     0.63360061    -0.46398590     0.59930248
O      -7.68124142     4.21974087    -9.85616191    -0.54127244     0.44363110     0.70113191
O      -7.83924147     4.33996796    -6.02473036     0.42845026    -0.17840352     1.28598664
O      -3.96572996     0.05079518    -2.09234168    -1.66057938    -0.58065601     0.09675571
O      -8.01590277     8.62153753    -6.11334730    -0.47811917     0.55010509    -0.26069103
O      -3.90912998     8.59428549    -2.09345443     0.24835298     0.90754904    -0.05258322
O     -11.51246839     8.75899858   -10.00027718    -1.02929046    -0.01244960     0.21737474
O      -2.05293949     4.10681167    -3.82377132     0.44266410    -0.49931485    -1.16485003
O      -9.69398670     4.71386237    -4.00430050     0.21024264    -0.35173665     0.44308992
O      -5.90497589     4.52235246    -3.97739472    -0.07005605     0.22649715    -0.29542059
O      -5.88413504     4.56382249    -7.95297301    -0.27740906    -0.75681618    -0.05865675
O      -2.11215990     0.06081212    -3.99844093     0.58954509     1.23358178    -0.82771627
O      -5.80413383     8.48193267    -8.01395000    -0.15509694    -0.46102493     2.80620612
O      -9.88624986     8.33774120    -4.21406423     0.44996898     0.80580179     1.06952794
O      -5.96727020     0.72665466    -8.01565960     0.03118038    -1.33798898    -0.76054313
