# total energy = -630.61447445 eV

CRYSTAL
PRIMVEC
        0.00279571     0.02951795    -7.98606283
       -7.83802570     0.01298533    -3.99532603
       -3.92160916     8.71933433     0.00634407
PRIMCOORD
56 1
Li     -3.85958525     2.07308955    -1.90320043    -0.60441494     0.42750673    -0.12367323
Li     -3.97810173     2.21277677    -6.08131990    -0.24124183    -0.18455112     0.68580235
Li     -7.76468497     2.22150107    -9.93267336    -0.42711658     0.31662886    -0.74086153
Li     -7.87061277     2.25987253    -5.97925540    -0.02016605    -0.33357493     0.44460435
Li     -3.83217266     6.39593048    -2.02584566    -0.52288678    -0.09899192     0.67931170
Li     -3.81264350     6.56286756    -5.87888788    -0.50981394     0.00916696    -0.04342934
Li     -7.92352444     6.51859650    -9.92648530     0.04503405    -0.22634289    -0.05317435
Li     -7.75155091     6.36906201    -5.95991171    -0.70569934     0.49346625     0.12323456
Ti     -2.02502119     2.20261245    -4.17706303    -1.29627578    -0.57462463     0.50912579
Ti     -5.82213534     6.63212554    -8.00301595    -0.88319849    -0.78355943    -0.03152388
Ti     -7.81998965     4.31050737    -7.65576627     0.08978576     1.28813981    -2.30739921
Ti     -7.77374896     4.42092731    -3.85855294     0.06810454    -0.99389159     2.22268595
Ti     -3.75793737     4.36816519    -7.65879073     0.21195291    -0.17822050    -1.01373564
Ti     -4.01193728     4.44357926    -3.73792010    -0.52767447    -0.62226449    -0.60867800
Ti     -5.73780838     8.70108834    -1.99747875    -0.11128657     0.41805467    -0.60902203
Ni     -5.87924847     2.44117364    -7.97137187    -0.44676097    -0.98377320    -0.42933284
Ni     -5.90744863     1.87150667    -3.98039199    -0.40934433     0.82588047     0.37435323
Ni     -9.85402768     6.61528840    -7.95148445     1.41801708     0.07333342     0.03977235
Ni     -9.68455521     6.57470058    -4.00143106    -2.10071955     0.26379182     0.20749977
Ni     -1.93328411     2.04719150    -8.03466318     0.20118495     0.35239976     0.47711200
Ni     -5.95964752     6.73683877    -4.00934307     0.60289020    -0.16706300    -0.46316736
Ni     -5.87401231     8.66827652    -6.01912098    -0.21834031     1.42321776     0.24783308
Mo     -5.88790372     0.14821869   -10.17990381    -0.28345689    -0.07983363    -1.46719428
Mo     -9.83820316     8.66091881    -6.35400803     1.47301695     0.00835144    -1.60610613
O      -2.01533398     1.87960049    -2.02093895     0.50353946     0.23606789     0.00398876
O      -1.99055531     1.87965281    -6.05034133     0.17128854    -1.08870280    -0.30322338
O      -5.83135436     6.80741651    -2.08823145    -0.47772892    -0.25906541     1.27271349
O      -5.93785510     6.90216328    -6.04967981     0.41431018    -1.16192903     0.67006126
O      -5.89515536     2.16138102   -10.06431978     0.34536746    -1.26937686    -0.53700980
O      -5.96368343     1.76634693    -5.83846088     0.65630157     1.67529190    -0.04363459
O      -9.80704710     6.90749923    -9.80187460    -0.09758696     0.37725605    -0.16784745
O      -9.83892024     6.78086131    -6.08768225     0.15269616    -0.60793058     0.84700057
O      -3.99476835     2.26457508    -4.02862168     0.49052303     0.64749872     0.14110441
O      -3.95985231     2.41007984    -7.92459330     0.57430209     0.85047086    -0.40895280
O      -7.84833080     2.32237176    -4.05233008    -0.19705835     1.05287818     0.18552879
O      -7.84952309     2.40436433    -8.01783302    -0.11555939     0.24722393     0.56684974
O      -3.78643935     6.43755401    -3.88010059    -0.90878943    -0.59695640    -0.82212138
O      -3.99442509     6.34624716    -7.97397766     0.70082613    -0.08311651     0.02638286
O      -7.89989344     6.47832257    -3.85512620     0.92393259    -0.90708648    -1.00329114
O      -7.90383797     6.22413146    -8.04341465     0.52076052     0.02513400     0.68811414
O      -4.03500416     4.40194687    -1.99000395     0.18286653    -0.19471354     0.05969102
O      -3.93305444     4.39116437    -5.93656783    -0.06371652    -0.00743268     0.46176679
O      -7.91132797     4.35229482   -10.06186560     0.34816105    -0.02902991    -0.71177938
O      -8.09895908     4.42301332    -5.94503651    -0.15941646    -0.30480866     0.68670877
O      -4.04350277     0.11889552    -9.94516446    -0.37067059    -0.15089512     0.00450902
O      -8.06706757     8.63862724    -6.19663905     0.21137857     0.29880468     0.15936602
O      -7.77763924     0.09274892    -5.89175130    -1.11672196    -0.80090471    -0.57304916
O      -7.78513575     0.09143551   -10.16799674     1.03274878    -0.01494016     0.69899828
O      -2.12481644     4.00191585    -4.22096093     1.31070419     0.55408162     0.98711031
O      -9.77947461     4.70605627    -3.95143240     0.17282095    -0.13849352    -0.22516852
O      -5.86875863     4.84853307    -4.16024925    -0.75323043     0.13851088     0.32854234
O      -5.91780455     4.38231470    -7.70724986    -0.01600772    -0.14283563    -0.81224300
O      -5.97707709     8.62146521    -4.00460432     0.34752120     1.07950942     0.47687142
O      -5.88934225     8.46468767    -7.94099366    -0.17406418     0.16695430    -1.35677787
O      -9.81191798     8.47375781    -4.06401907     0.47701806    -0.52522281     0.23374241
O      -6.01237133     0.56422419    -8.17655441     0.01613769     0.52785042     2.07344358
