# total energy = -629.94587399 eV

CRYSTAL
PRIMVEC
        0.00279571     0.02951795    -7.98606283
       -7.83802570     0.01298533    -3.99532603
       -3.92160916     8.71933433     0.00634407
PRIMCOORD
56 1
Li     -3.96371927     2.49106413    -1.89725174     0.19804214     0.14918768     0.09740927
Li     -3.72540697     2.16878630    -5.89018900    -1.44313354     0.00074636    -0.41724404
Li     -8.02033441     2.14021897   -10.07394566     0.68573320     0.50840792     0.33199913
Li     -7.71554628     2.38675269    -6.02969427    -0.51890560     0.05593521     0.39306482
Li     -3.91814933     6.38968578    -1.74267173     0.62099068    -0.19250888    -1.52693152
Li     -3.83696815     6.72087476    -5.99545629    -0.45854524    -0.43532181     0.49869390
Li     -7.91270766     6.75972698   -10.03007065     0.22355971    -0.48291621     0.61012082
Li     -7.77310402     6.46225557    -5.72299455    -0.32109393    -0.07325386    -0.74955608
Ti     -2.02522004     2.10768368    -3.83430152     0.61499772    -0.29512075    -2.36899424
Ti     -5.81686275     6.65299765    -7.93512745    -0.22845844    -2.36459059     0.83951375
Ti     -7.93700882     4.46476582    -7.88937188     1.10517120    -1.40181779     0.55891659
Ti     -7.78093268     4.32268717    -3.78370961    -0.49889658     0.09701284     0.33932292
Ti     -3.89553801     4.38255092    -7.66926586    -0.22482367     1.04293609     0.34542555
Ti     -3.93619503     4.46461277    -3.82067454    -0.91427035     0.68545347    -0.59286898
Ti     -5.98642152     8.67769241    -1.98829824    -0.33549874     0.64071597    -1.65573545
Ni     -5.90515520     2.10094935    -7.96482256     0.29606313     0.65183587     1.74752678
Ni     -5.81740829     2.25461035    -4.09898432    -0.67574119    -1.48568861    -0.25202207
Ni     -9.80112789     6.36186629    -8.06495089    -0.47256059     0.48779528    -0.50068813
Ni     -9.75501152     6.51059273    -3.90946319     0.76868261    -0.35436148    -0.71194135
Ni     -1.98601707     2.12650518    -7.94342882     0.11656866     0.82811365    -0.21034492
Ni     -5.94521783     6.78302723    -4.01251461     1.19744426    -0.61774846    -0.60413209
Ni     -5.92925341     8.73331239    -6.00307523    -0.11030253     0.51956260    -0.53365039
Mo     -5.94645431     0.13852879   -10.18283153    -0.16023251    -0.35369495    -1.35318223
Mo     -9.86374515     8.70483551    -6.30734368     1.58449395     0.02111370    -0.85754316
O      -2.00648960     1.99445556    -2.05849017    -0.23209205    -0.33546078     2.79281117
O      -1.98580805     1.84958698    -6.07176003     0.30555866    -0.35797949    -0.42914262
O      -5.78446544     6.84059757    -2.16539618    -0.21344425    -0.35380276     0.87718532
O      -5.85471700     6.84679805    -6.00596145    -0.49100447     0.50602404     0.27501779
O      -5.75559318     1.92195482    -9.73404940    -0.73515098     0.20350079    -0.66411905
O      -5.90713331     1.90074941    -6.10141328     0.37798092     1.01031438     0.51145813
O      -9.79019253     6.79179348   -10.09742933    -0.37723378     0.38033318     0.67951049
O      -9.66312519     6.89118645    -5.75370171    -1.16234747    -0.39582706    -0.24451086
O      -3.89258315     2.45438262    -3.97743427    -0.50810085    -0.53966233    -0.05629157
O      -3.94475272     2.53141167    -7.81651048     0.03039950    -1.96145832    -1.16936983
O      -7.84225879     2.37828701    -4.04557838    -0.24302567    -0.34601094    -0.12013671
O      -8.01109527     2.41506709    -7.98038630     1.78196907    -0.13116576    -0.30406409
O      -3.89978876     6.41366435    -4.04361014    -0.06452579    -0.56824689     0.33716313
O      -3.78694564     6.43365403    -7.93230970    -1.79836807     0.18031298     0.15670690
O      -7.80725246     6.31261856    -3.80632140    -0.03905869     0.12431804    -1.30183341
O      -7.85226270     6.31633083    -7.99161797     0.42621183     1.41540936    -0.59806062
O      -3.66709326     4.43170554    -2.08214328    -0.52716500     0.03966892     0.53260589
O      -4.06801478     4.49105131    -5.93179149     0.29850018     0.00409943    -0.53362071
O      -7.72817850     4.22852654   -10.02971130    -0.00908597    -0.09281585     0.67952225
O      -7.83313795     4.41890772    -6.08368780     0.09229677    -0.26225947    -0.68629819
O      -7.97903005     8.66983682    -9.99996844     1.41290402     0.36398398     0.18665057
O      -4.05083792     0.10574924    -6.14060082     0.08939867    -0.08770249    -0.00480905
O      -7.74206433     0.18768580    -6.08705010    -0.32295032    -0.90604425     0.12024292
O      -7.78151522     0.10806371   -10.08472374     0.34352395    -0.26508417     0.20459269
O      -2.00400495     4.30379151    -4.31396456     0.42338213     0.65149871     0.90532090
O      -9.79148727     4.52621596   -11.92758154     0.44527634     0.10664630     0.01214469
O      -5.86349429     4.01366208    -4.08364958     0.25354741     1.61020951     0.26437206
O      -5.78979898     4.66590356    -8.23831066    -0.26470176     1.19964668     0.72682763
O      -2.01902527     0.17315564    -3.98396271    -0.11513565     1.22737658     0.40827605
O      -5.85070134     8.50162980    -8.15799059    -0.06290747     0.69040784     1.26452250
O      -5.83659107     0.23722503    -4.05938548    -0.10781013     0.22784385     0.95377621
O      -9.84227447     8.22469179    -8.13484082    -0.00346524    -0.42788347     0.68341353
