# total energy = -630.31683080 eV

CRYSTAL
PRIMVEC
        0.00279571     0.02951795    -7.98606283
       -7.83802570     0.01298533    -3.99532603
       -3.92160916     8.71933433     0.00634407
PRIMCOORD
56 1
Li     -3.98886906     2.37767601    -1.91771373     0.12404031    -0.08200199    -0.03932844
Li     -3.87735922     2.48400939    -6.00524023    -0.52286430    -0.48777986     0.13312372
Li     -7.83253782     2.34134213   -10.13804157    -0.25891393    -0.14007393     0.86258189
Li     -7.79323897     2.25994661    -5.80886271    -0.38115929    -0.27956199    -1.13186095
Li     -3.76888252     6.64959962    -1.80668092    -0.66849289    -0.26176957    -0.96636745
Li     -3.92416291     6.63676830    -5.80537493     0.20603335    -0.15193389    -0.13294328
Li     -7.76765674     6.46868986   -10.07071395    -0.60662961     0.01053488     0.55561754
Li     -7.64004590     6.45547081    -5.88891107    -1.15266943    -0.02746495    -0.10758700
Ti     -2.01107635     2.25067921    -4.06280656     0.46201432    -0.19561698    -0.25337250
Ti     -5.86371312     6.66055082    -8.03128099     0.19585126     0.39956572     0.54326151
Ti     -7.83149738     4.38692975    -7.81736474    -0.18751776    -0.01632152     1.22678672
Ti     -7.88041245     4.23400206    -3.86388866     0.79634476     1.07962630     0.03120398
Ti     -3.74383830     4.45043767    -7.72475804    -0.73235532     0.66020791    -1.09742346
Ti     -3.94156037     4.44767981    -3.71890100    -1.26062968     1.11469660     0.09802540
Ti     -5.93398144     8.69280685    -2.24815402    -0.55334206     0.00807561    -0.32103735
Ni     -5.95836531     2.45853265    -7.91934298     1.20116657    -0.91051198    -0.56435329
Ni     -5.92951723     2.28402111    -4.09511316     0.97180667    -0.63613980     0.16454669
Ni     -9.77308479     6.41900644    -7.91218947    -0.04378611     0.84210538     0.57673404
Ni     -9.66383492     6.47696889    -3.95728352    -1.31348528     1.15889203    -0.24098871
Ni     -2.10136218     1.97682535    -8.02031798     0.87020685     0.26061873     0.23863697
Ni     -5.95467690     6.54135129    -4.01338134     1.27233259    -0.17038187     0.12274494
Ni     -5.85636907     8.70350661    -5.97677753    -0.02279717    -0.69533426     1.03755157
Mo     -5.95605028     0.12282013   -10.14314894     0.07941120    -1.98026699    -1.61367748
Mo     -9.77499755     8.64926309    -6.35062448    -0.36800932    -0.78548294     0.13179595
O      -1.99035087     1.90078074    -2.05325618     0.21424315    -0.29525934     0.33481269
O      -1.93804706     1.81142947    -5.96603799    -0.40278831     0.58041595    -0.76213887
O      -5.80376322     6.73634900    -1.95601559    -0.68408159     0.32970405    -0.35870260
O      -5.87119075     6.87209425    -5.90002296     0.30402164    -0.39077062    -0.15074654
O      -5.86350468     2.00589228   -10.12648073    -0.25049589     0.72078303     0.29717757
O      -5.91446086     2.02753774    -5.96210125     0.06279401    -0.43513283     0.09486249
O      -9.76857418     6.95874231    -9.68883780     0.60071208    -0.37972309    -0.56053263
O      -9.78084660     6.70954951    -6.03349272     0.75140969     0.96386823     0.17122109
O      -3.90941854     2.46911220    -3.98779599    -0.53878478    -0.84310726    -0.35325109
O      -3.93237975     2.54500291    -7.95375393    -0.52407667    -0.41334248    -0.01791438
O      -7.85502153     2.30013552    -4.02241505    -0.59540874     0.12017882     0.24494786
O      -7.84721524     2.40994620    -8.04922035    -0.57242114     0.65836638     0.30653097
O      -3.78237490     6.41336813    -3.87178035    -1.12135398    -1.14773426    -0.34671989
O      -3.91922638     6.51885500    -8.01264991    -0.28465616    -1.59988169     1.39516100
O      -7.80080040     6.38819992    -3.95930094     0.13345812    -0.76652659    -0.13910154
O      -7.89507198     6.31090581    -7.99376205     0.99507810     0.53715773    -0.24381746
O      -3.96749602     4.39273011    -1.96740858    -0.03126278    -0.14551827     0.06862899
O      -3.86906376     4.42731260    -5.99506180    -0.39728656     0.34500582     0.64989584
O      -8.03927086     4.40223573   -10.09716138     0.73603170    -0.11637158     0.84647171
O      -7.83350482     4.55581356    -6.02350567    -0.79536668    -1.03879721    -0.58210254
O      -7.87606024     8.69335936    -2.10965670     1.01852865     0.20918429     0.33789674
O      -8.02603457     8.74004367    -5.95625423    -0.84091461    -0.10763753    -0.14984789
O     -11.67958154     8.61969737    -5.95412670     0.70614342     0.78322115    -0.50056267
O     -11.61333794     8.61237342    -9.82418221    -0.36958799     1.02587368    -0.61615876
O      -2.07779158     4.15297659    -4.10169405     1.57725015    -0.17115728     0.40686672
O      -9.74689921     4.59657649    -3.99647102    -0.75588732     0.56563387    -0.80281165
O      -5.95684387     4.19319376    -4.12481963     1.07075467     0.66890017     0.35520809
O      -5.96653379     4.48287856    -7.97817785     1.27145565    -0.18911795    -0.26787141
O      -1.81400181     0.09740048    -4.09488689    -0.64115171     0.77886385     1.09353011
O      -5.98110685     8.53490622    -7.79997356     0.08062631    -0.63434207    -1.15623994
O      -9.94268680     8.53672376    -3.95867150     0.75612376     0.11980063    -0.07001760
O      -5.88943338     0.51223053    -8.10574951     0.49476126     1.25271272     1.28994546
