# total energy = -631.08402000 eV

CRYSTAL
PRIMVEC
        0.00279571     0.02951795    -7.98606283
       -7.83802570     0.01298533    -3.99532603
       -3.92160916     8.71933433     0.00634407
PRIMCOORD
56 1
Li     -3.93273842     2.28501225    -1.89967286    -0.37204621     0.03714011    -0.32929386
Li     -3.92242211     2.43336200    -5.94463854     0.02517915    -0.30751292    -0.07071460
Li     -7.62390107     2.40157733    -9.98438165    -1.01132553    -0.12139383     0.38043400
Li     -7.83332074     2.00451600    -5.86482601    -0.44855258     0.25302055     0.00094635
Li     -3.82220786     6.53715092    -2.01485479    -0.42287833     0.25508817    -0.00144042
Li     -4.01541104     6.27776122    -6.02775899     0.09038000     0.85682357     0.13882853
Li     -7.83814321     6.30063194    -9.92908850    -0.12102450    -0.01943239    -0.73576179
Li     -7.94387789     6.56023183    -6.00854171     0.50845172    -0.03931376     0.54861881
Ti     -1.91203454     2.04516800    -4.00939804    -0.02803761    -0.44750652    -0.43341627
Ti     -5.89538950     6.63711361    -8.04022127     2.03847463    -1.59363109     0.44612123
Ti     -7.85329863     4.46920059    -7.68910638     0.55663516    -1.92559753    -0.78529165
Ti     -7.73160720     4.27017539    -3.80540017    -0.22393806     0.67417825     0.58699429
Ti     -3.81346546     4.37092216    -7.82898037    -0.58958966     0.54616670    -0.52880397
Ti     -3.99608186     4.45885734    -3.80298901     0.98658170     0.27849675    -0.05665733
Ti     -2.20847066     0.01417377    -1.84181414     0.31566327     1.47043747    -0.82228165
Ni     -5.94624468     2.24544939    -7.88708908     0.76795737     0.10531926    -0.47375512
Ni     -5.88115493     2.15883659    -4.03241809     0.60736317    -0.79106323     0.28554313
Ni     -9.86554961     6.40786639    -7.98286944     0.37529505     0.03240499    -0.98034562
Ni     -9.77152712     6.46124260    -4.03741690    -0.04680701     0.21274715    -0.27674324
Ni     -2.00790245     2.25904300    -7.99898383     0.54964132    -0.09853619     0.88216271
Ni     -5.99469092     6.77282148    -4.02919196     0.56204968    -0.38069643    -0.14877707
Ni     -5.90706137     8.69490496    -5.92197597     0.25397932     1.22687066    -0.01663666
Mo     -9.92427725     8.69455982   -10.18257116    -0.79686384     0.73853236    -1.54846778
Mo     -5.82267740     0.08070542    -6.42342031    -1.34040878     0.32954511     0.50544899
O      -2.04489638     1.98536699    -1.93961240     0.71184103    -0.40497136    -0.02022396
O      -1.91378564     1.86007515    -5.94065291    -0.19886902    -0.01754966    -0.39286149
O      -5.77393767     6.88693614    -2.02341289    -0.80294067    -0.65373129    -0.18721385
O      -5.95366734     6.88691886    -5.90295055    -0.30459554    -0.08564322    -0.43881523
O      -5.86014183     1.95704652    -9.85174938     0.27924783    -0.93728234     0.41514036
O      -5.99214090     1.93748798    -5.99905251     1.13851232     1.61025910     0.00160213
O      -9.70390487     6.79270831   -10.17523929    -0.40387695    -0.14171728     0.50412006
O      -9.81008344     6.92772116    -5.89561713     0.26863726    -1.07194173    -0.19333576
O      -3.78404062     2.47804381    -4.01478743    -0.29145720    -0.18617494     0.34127972
O      -4.05189405     2.44037540    -7.96873766     0.33554619     0.40289893     0.33943896
O      -7.87969571     2.30608208    -3.90862182     0.12887657     0.47052516    -0.86581964
O      -7.82945030     2.42833481    -7.90504905    -0.35480745     0.52920436    -0.02657245
O      -4.03154248     6.43660304    -4.16887114     0.30746099    -0.87562882     1.05940526
O      -3.91152206     6.41949944    -8.01616248     0.34121642    -0.33654182     0.44617693
O      -7.87133271     6.30040409    -4.06284664     0.28544495    -0.32470407     0.78269931
O      -7.76530452     6.32713084    -8.06003925    -1.41503290     1.12812783     0.41485613
O      -3.88439964     4.60998732    -2.05614109     0.17885165    -0.53375918     0.42226248
O      -3.78189751     4.49995163    -6.07410617    -0.25630688    -0.82034081     0.17527711
O      -7.75175043     4.30851524    -9.99658427     0.39396208     0.63182739    -0.80420544
O      -7.67858856     4.53599696    -5.96716727    -0.19710797    -0.32030496     0.22827449
O      -3.98085673     0.05896417    -9.95090300    -0.05064534    -0.05468184     0.01239571
O      -4.12228603     0.21085989    -5.88379355     1.30293139    -0.49137490    -0.50382521
O      -7.61479790     0.14294857    -6.10333446    -0.59453131    -0.71413471     0.21885128
O     -11.68871772     8.75405121   -10.07592741     0.29499469    -0.25910320     0.47499965
O      -9.77907568     4.48614902    -8.04731012     0.01978800     0.15196899     0.36710345
O      -9.68775024     4.27715291    -4.01997006    -0.69517940    -0.05211891    -0.55756020
O      -5.76425702     3.98542908    -4.10924038    -1.88168675     0.27490047     0.00903562
O      -5.82179970     4.67768746    -8.09592796    -0.33930796     0.00524919     0.47518742
O      -1.92080054     0.16658533    -3.89047599    -0.10451194     0.95023305    -0.18128422
O      -5.87842185     8.53325159    -7.93765722    -0.29141973     0.54803221    -0.09782993
O      -5.84155101     0.22047554    -4.00573512    -0.08701019     0.39488891     0.79499222
O      -9.72505123     8.23765415    -8.18255005    -0.16817151    -0.39929091     0.12279637
