# total energy = -630.62938094 eV

CRYSTAL
PRIMVEC
        0.00279571     0.02951795    -7.98606283
       -7.83802570     0.01298533    -3.99532603
       -3.92160916     8.71933433     0.00634407
PRIMCOORD
56 1
Li     -3.95700340     2.17714234    -2.03684962     0.59042062     0.18416985     0.67891525
Li     -4.01185944     2.17712444    -5.97596918     0.23725896     0.08370407    -0.26545485
Li     -7.70700556     2.25515957   -10.03659079    -0.27344163     0.19630740     0.31121768
Li     -7.89856630     2.28300100    -5.78754016     0.70188109    -0.19660443     0.00812514
Li     -3.92322593     6.45453948    -2.00552550    -0.10272499     0.11363670     0.05372014
Li     -3.87941418     6.47512652    -6.11348124     0.03534247    -0.02733359     1.10279013
Li     -7.83676839     6.60777435    -9.96563521    -0.20440674    -0.41540554     0.07601466
Li     -7.92419777     6.49571105    -6.05489433     0.37652504     0.12984129     0.82704093
Ti     -1.95952579     2.07844505    -4.06348323     0.47630721    -0.14794120    -0.29369219
Ti     -5.90069513     6.72979297    -7.97723027     0.45282190    -0.25250221     0.30731682
Ti     -7.90239934     4.25999015    -7.68387605     0.77500824     0.71271136    -0.14887838
Ti     -7.92523514     4.50956059    -3.72814305     1.06624327    -1.17250197    -0.26713199
Ti     -3.95653409     4.32766205    -7.72760068     1.21967785     0.28204889    -1.05982867
Ti     -3.98257167     4.35588543    -3.70380512    -0.31271005     0.83232006     0.14019408
Ti     -6.10678142     8.71901324    -2.01859018     0.16893142    -1.81446865    -0.72990877
Ni     -5.84659797     2.46576237    -8.11091571     0.12784366    -0.60218671    -0.12854523
Ni     -5.77754267     2.24047418    -3.99861072    -1.52860760    -0.08283200    -0.90095953
Ni     -9.68547691     6.36289594    -7.90982793    -1.54577311     0.68238130     0.26160011
Ni     -9.74509467     6.57657115    -4.11191074    -0.67937529    -0.19504338     0.44732065
Ni     -1.84442713     2.35067933    -7.82390160    -0.77403381    -0.24775388    -1.07355250
Ni     -5.89616413     6.59638065    -4.01710978     0.36465540    -0.08168192    -0.22511911
Ni     -6.00586535     8.68667797    -6.00740719     0.69182796    -1.55625760     0.11388489
Mo     -9.89821168     8.71259070   -10.19361800    -0.33861112    -0.56775594    -0.08147814
Mo     -5.89020836     0.04144241    -6.42681913    -1.55985793    -0.61803227    -0.01389973
O      -1.80884414     1.73725307    -2.02143181    -0.32554568     2.97631186    -0.54639522
O      -1.98322155     1.75460141    -6.08599371    -0.18148811     0.88979430     1.64086151
O      -5.99954997     6.77287332    -2.07264357     0.89099573    -0.22871492     1.00551834
O      -5.83551029     6.80658135    -5.91605796    -0.44762779     0.20126057    -1.04322545
O      -5.76920067     1.97843620   -10.14110629    -0.74540732     0.84836368     0.22880991
O      -5.94032635     1.92908500    -5.94644687     0.48362476     0.55194086     0.32526740
O      -9.68793630     6.88240529    -9.85871456     0.01811565    -0.41227535     0.12550627
O      -9.86607558     6.79757003    -5.98531594     0.81760374     0.16679446    -0.86300357
O      -3.88934951     2.41139051    -3.96015973     0.50520406    -1.44106988    -0.57772916
O      -3.81736753     2.43100002    -8.10595187     0.04793357     0.43330526     1.02502251
O      -7.77565274     2.46173934    -3.85457183    -0.31192730     0.56946204    -0.65926854
O      -7.85021041     2.32122127    -8.09157529     0.15336582     0.77926423     0.24633368
O      -3.74358802     6.23401007    -3.94199707     0.10430544     0.49117126    -0.57355811
O      -4.00002870     6.43015490    -8.03602349    -0.07532496    -0.63599547     0.37597144
O      -7.82582051     6.42291672    -4.15631070    -0.10375642     0.07515070     0.82964891
O      -7.80842658     6.27427844    -7.88418334     0.22997154    -0.09720910    -0.47290991
O      -3.86773602     4.28020072    -1.95063733     0.04115684     0.21936967    -0.14486374
O      -3.90310849     4.23377422    -5.98919528     0.42409165     0.26407648     0.50991857
O      -7.90738512     4.53825375    -9.97417858     0.02584591    -0.19492694     0.86478563
O      -7.99558019     4.29786261    -5.93255435     0.46442732    -0.11190526    -0.68501780
O      -3.98723991     0.09228134    -9.87687611     0.04159569    -0.33721810    -0.72125282
O      -8.03528767     8.66958000    -6.00548387    -0.20403989     0.07368188    -0.42951548
O     -11.62148126     8.64737684    -6.10327134     0.66596527    -0.08196150    -0.08731943
O     -11.62986848     8.55565873    -9.97668494    -0.30189954     0.78218909    -0.13266467
O      -1.94880555     4.02502798    -3.95947694    -0.03280946    -0.33850179    -0.49837206
O      -9.79777067     4.70897380    -4.01307343    -0.65262753    -0.40708781     0.02750367
O      -5.85316756     4.44872801    -3.95786618    -0.80259163     0.18823558    -0.37386283
O      -5.84254358     4.36054601    -7.92765649    -1.38279310    -0.01542654    -0.33380243
O      -5.90505520     8.72364870    -4.02599554    -0.22636112     1.16049610     0.29306633
O      -5.97306901     8.57847262    -7.98894106     0.38520229    -1.19532809     0.05866829
O      -5.92347463     0.14322859    -4.03167486     0.37053281    -0.16931340     0.32877760
O      -5.87230846     0.61467770    -8.22743380     0.15938304     0.01017680     1.13894158
