# total energy = -630.58864316 eV

CRYSTAL
PRIMVEC
        0.00279571     0.02951795    -7.98606283
       -7.83802570     0.01298533    -3.99532603
       -3.92160916     8.71933433     0.00634407
PRIMCOORD
56 1
Li     -3.80601322     2.24627467    -1.90361336    -0.61874246    -0.05644152    -0.02006428
Li     -4.06242540     2.01286634    -5.93071424     0.93654536     0.29310278    -0.61257225
Li     -7.88781123     2.30081527    -9.99883892     0.24791260    -0.12170045    -0.21869728
Li     -7.98246199     1.85439179    -5.84840763     0.87507371     1.27719528     0.00557084
Li     -3.98873867     6.63371614    -1.98019114     0.32274011    -0.03823627     0.53064970
Li     -3.94567132     6.38195101    -5.83826233     0.15784600     0.18399598    -0.29321565
Li     -7.94639166     6.73989129    -9.80758474    -0.08473388    -0.56825751    -0.74602118
Li     -7.97093972     6.33451950    -5.95952292     0.45709503     0.12315995     0.59937155
Ti     -2.01475746     2.23243739    -4.10738405     0.26527057    -0.76364479     0.31721794
Ti     -5.94983909     6.54230778    -7.86901217     1.16045026     1.12242794    -0.27814176
Ti     -7.87249465     4.35681380    -7.78681928     0.64827842     0.05061887     2.41595652
Ti     -7.75119975     4.31957187    -3.74040685     0.54500653     0.08015610    -1.45703634
Ti     -3.76271017     4.38641348    -7.74268528    -0.06208316     0.00601821    -1.25932817
Ti     -3.91868723     4.47139615    -3.70604225    -0.60955867    -0.39143414    -1.32043165
Ti     -6.09166406     8.62409251    -2.11914952     0.64039590     0.53621268    -0.25125481
Ni     -5.92294612     2.47975650    -8.06185745     1.01390758    -0.31282316     0.00706344
Ni     -5.80228493     2.18414144    -3.96780380    -0.90314569    -0.41659764    -0.57246089
Ni     -9.84586843     6.66642627    -7.83005960    -0.05635639    -0.32565858     0.17675116
Ni     -9.80570314     6.38472219    -4.11410815     0.26468192    -0.31834076     0.66862610
Ni     -1.96239649     2.14352037    -7.95487423     0.21948770     0.14782620    -0.14107309
Ni     -5.79094839     6.64713684    -3.98128432    -1.72004513    -0.41747351    -0.11821476
Ni     -5.85958855     8.70291231    -6.07686441    -1.03983323    -1.51840249     0.73144630
Mo     -5.99463074     0.06160786   -10.22001527    -0.94118166     0.17274761    -0.79866713
Mo     -9.73529928     8.72189777    -6.38703183    -1.12166716     0.43768998     0.90017941
O      -1.98696764     1.81166522    -1.96203135     0.20971917     0.61929127    -0.67199259
O      -2.00957334     1.82859791    -6.07297398     0.14777193    -0.30167917     0.49436374
O      -5.90768707     6.73215322    -2.01182552    -0.10109643     0.26240667     0.60115310
O      -5.95501614     6.73412713    -5.93939772     0.80097444     1.00235677    -0.95942598
O      -5.89068803     2.02828237   -10.09502146     0.83636775     0.33678694    -0.22165692
O      -5.83732311     1.90014113    -5.86143724    -0.15928230     0.11318828     0.05919497
O      -9.89708746     6.96340216    -9.61971525     0.64685708     0.57838818    -0.66767154
O      -9.82841174     6.78546351    -5.96694772    -0.10952048     0.20480826    -0.97019047
O      -3.91433425     2.38738140    -4.07772920     0.26344234     0.35077556     1.01835462
O      -3.93063290     2.47047043    -7.99817128    -0.16053850    -0.02099552     0.10521378
O      -7.72658358     2.31933839    -3.99998444    -0.48894293     0.64234319     0.36723191
O      -7.84171648     2.45561202    -8.02084622    -0.49668897    -0.70067790    -0.19334344
O      -3.88173368     6.42839172    -3.87741895     0.94597529     0.13339420    -0.44638556
O      -3.83980895     6.37446832    -7.97366868    -1.67299920     0.05273585     0.21379552
O      -7.97693548     6.21771954    -4.03866651     0.52937719     0.76264422     0.28858795
O      -7.90464392     6.36753047    -7.94112069     0.10115709    -0.48678432     0.24470192
O      -3.78420197     4.48749948    -2.00093052    -0.04315635    -0.51624665     0.79980600
O      -3.84694239     4.49596717    -6.03813883    -0.31290445    -0.06340783     2.24427416
O      -8.04561301     4.34125372   -10.01960035     0.34949958    -0.16341981     1.81855946
O      -7.97537081     4.27192189    -5.93987884     0.30002203     0.56782412    -2.89297927
O      -3.94844442     0.05320295    -2.07313394    -1.36757390    -0.41066384     0.26876795
O      -7.96717894     8.60905000    -5.95001531    -0.61476159     0.61795946    -0.56219972
O      -7.65319803     0.13388647    -6.01561395     0.40919300    -2.06894108    -0.28625847
O      -7.76336880     0.19571995   -10.02345403     0.24280374    -0.44904129    -0.39298586
O      -1.94925820     4.07063739    -4.06269587    -0.80508860     0.03593300    -0.04484587
O      -9.74556370     4.37025915    -3.99770474    -0.23847251     0.58177883    -0.51522782
O      -5.80028134     4.73881544    -4.00089435    -0.48870684    -0.13611616     0.12945523
O      -5.88215219     4.51104552    -8.14586312    -0.55993491    -0.51075838     0.74096242
O      -5.93547819     8.65361716    -4.04723684     0.60803361     0.64709394     0.43677931
O      -6.08775467     8.47978919    -7.96510392     0.81348118    -0.95438672    -0.40045882
O      -9.73948430     8.34681109    -3.98726376    -0.29915998    -0.22426102     0.62784669
O      -5.86793782     0.65991895    -8.15501405     0.24316338    -0.66720345     0.71511217
