# total energy = -631.16097526 eV

CRYSTAL
PRIMVEC
        0.00279571     0.02951795    -7.98606283
       -7.83802570     0.01298533    -3.99532603
       -3.92160916     8.71933433     0.00634407
PRIMCOORD
56 1
Li     -3.82562207     2.17290848    -1.88324748    -0.41464878     0.18937336    -0.47872617
Li     -4.00280175     2.02698686    -6.03309743     0.27516672     0.42371318     0.15039366
Li     -7.86797009     2.22436169    -9.92027659     0.10166051    -0.02845108    -0.44217498
Li     -7.81564114     2.41128418    -5.80629950     0.08154549    -0.19376607    -0.87543638
Li     -3.87387602     6.37497337    -2.08031452     0.00878081     0.16602441     0.53693582
Li     -3.96979955     6.54326445    -5.96101127     0.09273223    -0.07337759     0.53243907
Li     -7.89223676     6.50209422    -9.91701320    -0.29773561    -0.08542442     0.22468738
Li     -7.69480613     6.47383395    -6.00940638    -1.20152104    -0.36074441     0.31445807
Ti     -1.98733653     2.22937321    -4.07352475     0.22038056     0.24999216     0.54967711
Ti     -5.75804897     6.67876242    -8.00323361    -1.11778040     0.73110724    -0.14709390
Ti     -7.87687631     4.42695599    -7.80452244     0.19466893    -0.14576077     0.57509746
Ti     -7.92343134     4.39489831    -3.70802884     0.00044618    -0.19734109    -0.79436346
Ti     -3.91038512     4.34420996    -7.74040776     0.70111948    -0.10807310     0.12346236
Ti     -3.98321056     4.42117816    -3.89299995    -0.72929085     0.36261759     1.31922014
Ti     -5.80963265     8.65724762    -2.20632593     1.60978333     0.04046819     0.89149384
Ni     -5.88928069     2.38140939    -8.09848970     0.01501873     0.87775476     0.93969278
Ni     -5.96665838     2.33220244    -3.86199532     0.92130716    -0.24304802    -0.33312437
Ni     -9.91834151     6.58816322    -7.88931458     1.57078546     0.21816675    -0.00512436
Ni     -9.72799177     6.59237588    -3.99942347    -1.19204467    -1.24790986    -0.54441293
Ni     -1.95704649     2.12275949    -7.97057235     0.49986894    -0.09354117     0.16806651
Ni     -5.96344155     6.53735189    -3.92305625     0.15200948    -0.16215759    -0.94750522
Ni     -5.81309377     8.67775902    -5.98100221    -0.96535475    -0.06749643    -0.49096683
Mo     -9.85114844     8.69954308   -10.25656367     0.39841099     1.39397889     0.76144263
Mo     -9.69234300     8.67821104    -6.27941802    -1.61502648    -0.13262070     0.21049280
O      -1.84934114     1.85715286    -1.99941620    -0.99400085    -0.21659085    -0.03063142
O      -2.02857301     1.80259509    -6.01799350     0.40190022     0.19292727    -0.18299913
O      -6.01808202     6.68521199    -1.98361632     0.65962312     0.66535143     0.05289974
O      -5.94869947     6.83201129    -5.96721880     1.43101105     0.08777476    -0.16363408
O      -5.90146400     2.05313873    -9.95143242     0.03786631    -0.51921363    -1.57629378
O      -5.84491123     1.77560264    -5.71822403    -0.75824559     0.71467921    -0.17510721
O      -9.85360194     6.87540524    -9.78596130    -0.41647885    -0.25743035     0.33539874
O      -9.73915576     6.73463575    -5.97751398    -0.15101048     0.64655513    -0.42002126
O      -4.01919529     2.49342453    -3.93854319     0.59799993    -1.32455313    -0.17739809
O      -3.84850196     2.46357002    -8.01152537    -0.23344290    -0.37454765    -0.09607085
O      -7.85146996     2.45855154    -4.00153983    -0.35270845    -0.25175598     0.88846171
O      -7.90744957     2.37086825    -8.03174483     0.04547185     0.20325009     0.26213103
O      -3.88482211     6.44320455    -3.96575391    -0.95282080    -0.73891600    -0.62163987
O      -3.90382786     6.32167346    -7.98026435    -0.49847171     0.51855728     0.21488367
O      -7.91255055     6.31462567    -3.93740954     0.96888998     1.12991269    -0.29238991
O      -7.95310818     6.32004259    -7.97339906     0.64330316     0.60078166     0.04414346
O      -3.86143811     4.43038165    -2.12548028    -0.22556025    -0.04527760     0.18394140
O      -3.89992196     4.27146748    -5.96896259     0.13872761     0.54770923    -0.67596243
O      -7.92113107     4.40918678    -9.95113686    -0.05477233    -0.31403642     0.41891946
O      -7.99581874     4.38912772    -6.05365732     0.60625654    -0.23990792     0.22076923
O      -8.03538815     8.74403610    -9.92078478     0.45268447     0.30200817    -0.22217339
O      -7.93079194     8.68542274    -6.27312820     1.26994903    -0.40373723     0.74780578
O      -3.86760827     8.54841949    -2.07064273    -0.57676488     0.01606975    -0.60940499
O      -7.75363424     0.14988573    -9.94792786     0.66388785    -0.59459071    -0.27616590
O      -1.93907728     4.09499258    -4.01480394    -1.52608067    -0.34065837    -0.71589640
O      -9.81418521     4.67747365    -4.06070582    -0.50518931    -0.07542796     0.34161996
O      -5.97223572     4.58556287    -4.14235522     0.39775889    -0.12240969     0.59282956
O      -5.92130549     4.38420691    -8.05145320     1.15376761    -0.24868550     0.17744562
O      -2.15114139     0.11089687    -4.04120266     0.18695430     0.08795323     0.24901367
O      -5.66292846     8.50032965    -8.06569195    -0.61861132    -0.58688147     0.28756263
O      -9.75085819     8.49303698    -4.07786391    -0.15727332    -0.27012474    -0.11133505
O      -5.82525537     0.59222534    -7.98887408    -0.87602581    -0.29041497    -1.12905543
