# total energy = -630.66346451 eV

CRYSTAL
PRIMVEC
        0.00285542     0.02004370    -7.95977623
       -7.82940539     0.00763210    -3.98158109
       -3.91729101     8.74642787     0.01461334
PRIMCOORD
56 1
Li     -3.90224822     2.56639635    -1.80465485    -0.04593020    -1.15850443    -0.01296020
Li     -3.96343267     1.90844549    -5.93489487     0.12367167     0.14506574    -0.56516645
Li     -7.93410496     2.05796067    -9.96398711     1.34208368     0.65575271    -0.12520040
Li     -7.81107396     2.06945386    -5.89905386    -0.45751093     0.20813467     0.05342299
Li     -4.10118804     6.52484262    -1.98871439     0.99023496    -0.11566901     0.15294426
Li     -3.86803260     6.75954563    -5.65264046    -0.04851248    -0.42689774    -0.43900446
Li     -7.79943124     6.15617757   -10.01504783    -0.28761445     0.85725617     0.58347192
Li     -7.95365379     6.79234731    -6.04781587     1.15248196    -0.36923221     0.85772450
Ti     -1.96863420     2.30113527    -3.95702861     0.17296252     0.31801548    -0.14491389
Ti     -5.76449627     6.73333580    -7.82404824    -1.63237104     1.34448204    -0.34614695
Ti     -7.77145842     4.31879679    -7.77738685     0.33318709     1.47060726     0.42793711
Ti     -7.85837952     4.33637090    -3.88284037    -0.32373586     0.21686229     1.23928353
Ti     -3.86165309     4.44959378    -7.65211776     0.38963056    -1.72910005    -1.25523378
Ti     -4.03225935     4.33346489    -3.72727066     0.18454559     1.43970847    -1.06271767
Ti     -6.05016057     8.70877080    -2.19471587    -1.20988205    -0.53562829     1.76925559
Ni     -5.96695139     2.45324282    -7.99774276     1.87888634    -0.51816322    -0.41624985
Ni     -5.88015763     2.16428416    -4.03166737     0.53724275    -0.13402373    -0.00674455
Ni     -9.72800603     6.53551286    -7.81032442    -0.70731846    -0.23121319    -0.23071458
Ni     -9.82371928     6.41910758    -4.08567159     1.11349750     0.35110072     0.18818302
Ni     -1.87745320     2.15408576    -7.86928796    -0.58770072    -0.04714664    -1.04600257
Ni     -5.85472989     6.54261520    -3.87569915    -0.48787403    -0.16267396    -1.30529084
Ni     -1.88734816     0.03744786    -5.93173149    -0.95737220    -0.99719511    -0.70303493
Mo     -5.95993061     0.04865008   -10.21644929     0.90693127    -0.61427360     0.83303520
Mo     -9.84371782     8.71434924    -6.39209116     0.08142379    -0.23333542     0.66172508
O      -2.01532566     1.88431236    -1.90049569     0.77189415     0.25897002    -1.06285859
O      -1.83060198     1.88399215    -6.01617781    -1.71207144    -0.35559954     0.91666212
O      -5.93424917     6.70905524    -2.01021831    -0.08084849     1.12516584     0.86500261
O      -5.91098737     6.90215569    -5.89049362     0.76304597     0.13374229    -0.18955392
O      -5.93291754     1.95588942   -10.05597787     0.65308738     1.08645319    -0.50936605
O      -5.97687270     1.92358067    -5.96259704     1.05127846     0.05919006     0.65386879
O      -9.75991077     6.95402882    -9.63531264     0.10532180     0.79274738    -0.11278450
O      -9.78345663     6.79147931    -5.94780447    -0.32865330     0.16262215    -0.71352154
O      -3.90480988     2.37095861    -4.07416710    -0.26306336     0.32485636     0.46854573
O      -3.82981012     2.46824986    -7.91672525    -0.22893236     0.70755004     0.87086430
O      -7.70513744     2.40128540    -3.99503091    -1.13623231    -0.42638000    -0.03672355
O      -7.88486946     2.37259267    -7.97872290    -0.38634242    -0.26109491    -0.08637035
O      -3.83359551     6.36034753    -3.84987701     0.18202210    -0.27740660    -0.02350412
O      -3.90626850     6.46575458    -7.96608160    -0.58741359    -0.19735143     0.10167618
O      -7.80967793     6.31544684    -4.03830366    -0.66676489    -0.09140569     0.08746301
O      -7.76071048     6.26909816    -7.91001350    -0.20707142     0.27660791    -0.05479912
O      -3.91918926     4.38779338    -2.00052867     0.03889563     0.30148363     0.35759209
O      -3.68944022     4.67029924    -5.97354745    -0.44021874    -0.09998181     2.11520907
O      -8.05074022     4.34788810   -10.03016104     0.31683669    -0.45917832    -0.42369135
O      -7.81792929     4.24598807    -6.03406320    -0.01921648    -0.12552760     0.36554905
O      -3.96699453     0.08842149    -2.02533690    -0.13026308    -0.22427079    -0.28091770
O      -8.03874237     8.72312328    -5.91286413    -0.73559273     0.28701717    -0.83595899
O     -11.64411809     8.66810590    -5.95955990     0.32843241     0.17608549    -0.26893348
O      -7.77661372     0.07008918   -10.03016381     0.77389901    -0.47980865    -0.26952115
O      -1.94248911     4.20921767    -3.87755123    -0.52591597    -1.44656413    -0.47261291
O      -9.81647585     4.53441100    -4.14448425     0.43546857     0.38367838    -0.24163206
O      -5.90174081     4.62670127    -3.90771129     0.09290285    -0.20503761    -0.57460270
O      -5.80153209     4.33870483    -8.03987407    -0.64672648     0.31072804     0.33547622
O      -1.89949653     0.07107497    -4.00781309    -0.08968050     0.95395278    -0.22335045
O      -5.97835306     8.57690614    -7.94367073     0.62839303    -1.12714847     0.13215358
O      -9.69342261     8.42846388    -3.95493172    -0.56402425    -0.56811185    -0.96850135
O      -5.95161527     0.63517251    -8.13616036     0.17244375    -0.73120717     0.94129031
