# total energy = -630.35537851 eV

CRYSTAL
PRIMVEC
        0.00285542     0.02004370    -7.95977623
       -7.82940539     0.00763210    -3.98158109
       -3.91729101     8.74642787     0.01461334
PRIMCOORD
56 1
Li     -4.10203146     2.26559218    -1.84226514     0.72048445    -0.03420159    -0.33013929
Li     -3.94924132     1.96925611    -5.94544376    -0.43822560     0.32491148    -0.24104047
Li     -7.67796246     2.36921378    -9.87136515    -0.47084983    -0.00798548    -0.49203133
Li     -7.62064146     2.46578607    -6.00059564    -0.83547954    -0.92464530     0.65566960
Li     -3.86747894     6.45029208    -1.88849973    -0.22611987     0.11212527    -0.20130605
Li     -3.83861570     6.29526682    -5.83671868    -0.31752735     0.49060974    -0.08161553
Li     -7.79847456     6.32635647    -9.88418572    -0.22709886     0.14878990    -0.17915610
Li     -7.86743836     6.37837825    -5.81969036     0.27199381     0.22901878     0.02387358
Ti     -1.99224827     2.10165065    -4.15532411     0.63649788    -0.51559428     1.17268669
Ti     -5.95893485     6.60597760    -7.88926342     1.97229384     0.15215847    -0.75018187
Ti     -7.83679030     4.42378573    -7.68774244     0.06812039    -1.53920238     0.78254236
Ti     -7.62079690     4.36675484    -3.74834034    -1.13276241    -1.55947483     0.77059686
Ti     -3.75846043     4.39956256    -7.73070716     0.69642612    -0.20200579     0.57742280
Ti     -3.82735108     4.33591716    -3.73856932    -0.36438539     0.41823123     0.30868087
Ti     -2.17972804     0.11822050    -1.90965055    -1.07432902    -0.47228669    -0.66816318
Ni     -5.89837609     2.47596397    -8.01358539    -0.54855403    -0.97749479     0.05180843
Ni     -5.95085669     2.07735294    -4.03617782     0.82174594    -0.24135012     0.81758151
Ni     -9.80167004     6.59054354    -7.86992576    -0.70854140    -0.07430408    -0.19445491
Ni     -9.60600063     6.46701948    -3.99298513    -1.35295611     1.37696202    -0.28215122
Ni     -2.09801015     2.21825254    -7.89772036     1.54890155    -0.48628741    -0.86165033
Ni     -5.84521356     6.64587978    -3.89455414     0.43009117    -0.31692829    -0.06182724
Ni     -5.98998962     8.70891660    -6.01922428     0.62209925     1.57709284     0.51143556
Mo     -9.92716008     8.73939363   -10.26708641     1.53771436     0.75967644    -1.15433661
Mo     -9.78458208     8.72368989    -6.41283975    -0.08203992    -0.65456980     0.58272838
O      -1.96245534     1.95688855    -1.94117708     0.00766076     0.06314967    -0.04609750
O      -1.92218454     1.79739040    -6.03167922    -0.71008208     0.88101649    -0.01353633
O      -5.88263773     6.85314686    -1.93879486    -0.12722222     0.40580520     0.19852641
O      -5.86256630     6.98147463    -5.90269571    -0.41037321    -2.17446517    -0.65565233
O      -5.86168193     1.96127431   -10.16041040    -0.40046039     0.47979487     0.32667940
O      -5.85974850     1.81696222    -5.80180028     0.48632351     1.38244663    -1.01540769
O      -9.75960332     6.94902112    -9.72118181     0.00150658    -0.47808064     0.03390548
O      -9.72710513     6.76817285    -6.02699010     0.03843593     0.01820409     0.20812420
O      -3.99172235     2.37008964    -4.01524680     1.12889871     0.21514327    -0.21051887
O      -4.03316776     2.44193267    -7.83691045     0.78371601     0.80503712    -0.52808643
O      -7.79478192     2.36082887    -3.98920904    -0.72492928     0.87648948     0.35589624
O      -7.82682834     2.40167837    -7.93606296     0.05602644     0.70839290    -0.25379863
O      -3.90924791     6.34557262    -3.89622597     1.07032817     0.02653328    -0.06883844
O      -4.03440973     6.31184995    -7.96294419     0.50388094     0.41745101     0.48113998
O      -7.72992827     6.31720834    -3.89771092    -0.37617608     0.67871526    -0.30928417
O      -7.86757015     6.33007066    -7.93256900    -0.35812758     0.44876871     0.45896649
O      -3.92959940     4.29311917    -1.98393364     0.09509432     0.05983497     0.35057463
O      -3.88770484     4.45213992    -5.96021298    -0.25909885    -0.31369644     0.33178359
O      -7.82129206     4.38536059    -9.90831091    -0.33353716    -0.40579578    -0.01006637
O      -7.87143948     4.27020057    -5.86519724     0.25126236     1.21951593    -1.39095606
O      -4.04152226     0.21355949    -9.95044919     1.17113020    -0.60575467     0.10627511
O      -4.02160766     0.04978735    -6.24975683     0.20346238    -0.43170816     0.51148687
O      -7.55194797     0.04133254    -5.95164147    -2.11454142    -0.76440538    -0.22594613
O      -7.67930302     0.17330043    -9.97956091    -1.82973318    -0.61003941    -0.43905290
O      -1.87577195     4.06717860    -3.88142129    -1.99873165    -0.40751992    -0.88185815
O      -9.69373901     4.63831182    -3.88332129    -0.56391612    -0.26305354    -0.44900941
O      -5.81766226     4.66472614    -3.80242310     1.07066472     0.37862591    -1.03066597
O      -5.92870636     4.50517948    -7.94313502     0.41350996    -0.40787214     0.08367636
O      -1.98214370     0.10268303    -4.07258225    -0.04665762     0.87725398     0.83756267
O      -5.96884724     8.54370240    -7.99435750     0.42524568    -0.69601220     0.65855476
O      -9.73642925     8.42671464    -4.14338671     0.36087660    -0.63872978     1.92449680
O      -6.03158269     0.57044283    -8.14268780     0.68279111     0.81903184    -0.27419018
