# total energy = -630.83907363 eV

CRYSTAL
PRIMVEC
        0.00279571     0.02951795    -7.98606283
       -7.83802570     0.01298533    -3.99532603
       -3.92160916     8.71933433     0.00634407
PRIMCOORD
56 1
Li     -3.96807278     2.19714219    -1.96603416     0.00673265     0.01778436    -0.06077338
Li     -4.00421063     2.35574673    -6.12626345     0.37818630     0.16300024     0.30119547
Li     -7.67513042     2.29405935   -10.02079505    -0.35272174     0.25702282     0.34564873
Li     -7.78362662     2.38554120    -5.92698537    -0.31356668    -0.02760826    -0.17531937
Li     -3.86084068     6.42468266    -2.03887075    -0.10422109     0.09692821     0.89695553
Li     -3.93378612     6.38561118    -5.75092731    -0.20027359    -0.05941685    -0.62552033
Li     -7.98314506     6.65152166    -9.76741913     0.52920447     0.01975528    -0.36031468
Li     -7.89890713     6.35000433    -5.88321082     0.33639076    -0.01159254     0.42856179
Ti     -1.99268925     2.35506615    -4.14655824     0.67498141     1.22789892     1.26495924
Ti     -5.87173796     6.91086285    -7.93390605     0.27047307    -0.80947910     0.33226168
Ti     -7.72135990     4.47843405    -7.78216499    -0.39590380    -0.92973636     0.71749629
Ti     -8.01045889     4.44546772    -3.69271031     0.52798753    -1.72371767     0.33831765
Ti     -4.02926701     4.43705113    -7.86282653     0.54851624    -0.52451084     1.51884879
Ti     -4.15248486     4.37419458    -3.74929766    -0.18066127     0.08873434    -0.19288541
Ti     -1.71794235     0.08410678    -2.30365925     0.58860702     0.67033000     2.83669604
Ni     -5.76299468     2.03247286    -7.94252711    -0.66892717    -0.07365444    -0.81652488
Ni     -5.88472626     2.21284004    -4.07656812    -0.00574516     0.79702089     0.12807991
Ni     -9.83485542     6.35302790    -7.94415883     0.28410502     0.26963355    -0.10462896
Ni     -9.78564563     6.51144588    -3.92431393    -0.36244310     0.65643711     0.48185508
Ni     -1.92876038     2.19909980    -7.97980959    -0.09074400    -0.67842101    -0.66933436
Ni     -5.99476044     6.64116717    -3.93251181     1.23069208     0.23386995    -0.04273710
Ni     -1.97452195     0.09053959    -6.03007975     0.58187839    -0.07508912     1.00516071
Mo     -9.95321610     8.64834396   -10.25873370     1.20071996     0.32284822    -1.93462757
Mo     -9.64863229     8.69845323    -6.25553323    -0.16208230     0.78132626     0.24255605
O      -2.09154430     2.02358576    -2.17126686     0.64248357    -1.38123553     0.57842935
O      -1.83993516     1.97417876    -6.00573986    -0.54629117    -1.08259237    -0.80427819
O      -5.80720195     6.91504443    -1.98946929    -0.96609373    -0.47577910     0.31984175
O      -5.91260020     6.98138340    -5.93128331    -0.00831687    -0.57118729    -0.02131882
O      -5.86564830     1.84589672    -9.79524587    -0.56591998    -0.16335970    -0.06742474
O      -5.90226214     1.90077986    -6.12195165     0.43224254     0.57535251     0.78227172
O      -9.85639124     6.66510577   -10.01356653    -0.42528302     0.13037420     0.00988868
O      -9.78711522     6.84571129    -5.78597868    -0.10266077    -0.38703336     0.46574954
O      -3.94601626     2.50349617    -4.16518557     0.15032775    -1.45414175     0.38927464
O      -3.87902916     2.41491236    -8.06604630    -0.85989614    -0.41309408     0.74545506
O      -7.73051149     2.40288618    -3.99650958    -1.18154552     0.27191185     0.07349715
O      -7.85085541     2.46603921    -7.94719622     0.40391717    -0.11228527    -0.25131969
O      -3.88413574     6.28227188    -3.85646623    -0.55956442     0.01973233    -0.83265016
O      -3.86975812     6.39674105    -7.96350032     0.11729184     0.21745136    -0.08165173
O      -7.81381295     6.33003738    -3.86474915    -1.09416779     0.20115871    -0.33657363
O      -7.85257610     6.48719857    -7.71744922    -0.25502627    -0.71651510    -2.03012363
O      -3.92286262     4.20046280    -2.00101328    -0.06510118     0.64098891     0.23669983
O      -3.97814519     4.28473976    -6.03470777     0.15112409     0.71243908    -1.17979028
O      -7.69543893     4.31015161    -9.92312348    -0.71007803     0.46576428    -0.20903609
O      -7.85567811     4.33820826    -6.00598920     0.48166083     0.44609396    -0.24523290
O      -8.19408232     8.64612340    -9.94609430     1.12926106    -0.34765343     0.09292665
O      -3.96117479     0.06850614    -6.19469158     0.08674992     0.40341851     0.35071816
O      -7.76258363     0.12394101    -6.00233074    -0.03186621    -0.13798316    -0.68025881
O      -3.94364902     8.62246989    -6.00639015     0.40259984     0.40091030     0.07300414
O      -1.93166827     4.27309909    -4.05654370    -0.18314173     0.66457807    -0.13135501
O      -2.03367470     4.03370881    -0.11189845     1.19178881     0.61266963     0.66633705
O      -5.97622873     4.17218243    -3.92970003    -0.11355983    -0.14496832    -0.63730983
O      -5.85223129     4.86115380    -7.97751240    -0.72252531     0.18783543    -0.33453285
O      -2.07477232     0.22379836    -4.01375848    -0.14891342     0.64636202    -2.66094177
O      -1.94151060     0.04503477    -7.99362841     0.06888769     0.24207585    -0.55627874
O      -5.80487025     0.33361714    -4.14844318    -0.61060193    -0.01877898     1.28600397
O      -9.88425752     8.27294954    -7.99048097    -0.51360716    -1.01535743    -0.78389502
