# total energy = -630.71783370 eV

CRYSTAL
PRIMVEC
        0.00285542     0.02004370    -7.95977623
       -7.82940539     0.00763210    -3.98158109
       -3.91729101     8.74642787     0.01461334
PRIMCOORD
56 1
Li     -3.96743694     2.31905409    -1.94527604    -0.43821993    -0.27088893     0.10985319
Li     -4.01337156     2.14528534    -6.09324309     0.34194031    -0.08500559     0.23591432
Li     -7.94291256     2.06753031   -10.07117516     0.49865083     0.22575250     0.39070147
Li     -7.63443977     2.25843884    -5.94314571    -0.91645050    -0.08165624     0.25892293
Li     -3.74587630     6.53420851    -1.82319650    -0.62010694     0.10215478    -0.40244913
Li     -3.72583954     6.25159990    -5.72054713    -0.74276701     0.75462997    -0.72585846
Li     -7.87832441     6.67510616    -9.90061571     0.31425327    -0.14935938     0.08397491
Li     -7.67736227     6.26539383    -5.60986324    -0.70421364     0.47315026    -1.67838593
Ti     -2.09434451     2.29067074    -4.01409521     0.78925725     0.04201978    -1.10218506
Ti     -5.86188303     6.79314555    -7.85917058    -0.58904528     1.31944812    -0.07070009
Ti     -7.72294185     4.30786654    -7.76175217    -0.04464095     1.28212112    -0.49570372
Ti     -7.73661967     4.40165552    -3.69860443    -0.53470936    -0.76280679     0.75963503
Ti     -3.83333408     4.38880989    -7.68336340    -0.08244416    -0.38292462    -1.27427609
Ti     -4.00900739     4.44327296    -3.70011714    -0.30877033     0.14796812    -0.25167033
Ti     -2.03325285     0.08072056    -2.18940769    -0.74325305    -0.91810740     0.04163282
Ni     -5.94609912     2.35044148    -8.08277887     1.12314664    -0.69501651     0.58239852
Ni     -5.88970142     2.16648938    -4.02133239    -0.35826012     0.29033805     0.12363457
Ni     -9.80580923     6.39189925    -7.85586382     0.72655961     0.29096273    -0.02356835
Ni     -9.74736839     6.42244102    -3.90244508    -0.26712281    -0.05065798    -0.61301172
Ni     -1.98692762     2.32991532    -8.00353518     0.70924822    -0.06383582     0.51131222
Ni     -5.84099062     6.65420400    -3.98333775    -0.51664270     0.67729912     0.85935124
Ni     -5.92803122     8.73124949    -5.87028320     0.08405684     0.51500982    -1.54273095
Mo     -9.89998725     8.68051449   -10.11675980    -0.07459478     1.41502929    -1.03200387
Mo     -9.71278769     8.62151846    -6.41577502     0.51449520     2.83546712     1.09342952
O      -2.04467257     1.96004245    -1.95686366     0.57786883     0.22475356    -0.65954546
O      -1.94684404     1.88575043    -5.99874756    -0.68571616    -0.51260522     0.21691486
O      -5.95365329     6.95760117    -2.05520036     0.85159915    -1.11722925     0.75385386
O      -5.95318557     6.81804022    -5.84758657     0.61999095     0.40439137    -0.37114522
O      -5.96292246     2.05008121    -9.98986871     0.13230121    -0.42264419    -0.56971648
O      -5.86211689     1.92088582    -5.99005485     0.15350972     0.20188971    -0.24979263
O      -9.78331271     6.82616494    -9.98517587     0.13415716    -1.08610721     1.12140005
O      -9.61712126     6.88748321    -5.90995140    -0.57592624    -2.36210432     0.34517300
O      -3.95079759     2.38993998    -3.98931958    -0.39441734     0.06008292     0.16885097
O      -3.90225699     2.47289227    -8.01839245    -0.18664977     0.16736228     0.19971308
O      -7.83932453     2.42584331    -3.95222502    -0.45445057     0.09834599    -0.89076073
O      -7.94247546     2.42990992    -8.03200345     0.72848741    -0.42953435     0.71324494
O      -3.94986996     6.41375070    -3.88459591     0.81263929    -0.76012954    -0.14861023
O      -3.98308240     6.39551642    -7.82538453     0.47019095    -0.25507120    -0.55064614
O      -7.82898474     6.39809910    -3.88027645     0.26317131    -0.68770874     0.51515778
O      -7.78600852     6.44519407    -7.93262602     0.09746989    -1.16686473    -0.24360347
O      -3.90845301     4.56575829    -1.96560471     0.11541274    -0.30750013     0.25754874
O      -3.79027797     4.43590711    -5.96247539    -0.19374186    -0.15008549     1.63473045
O      -7.93803040     4.35831746    -9.90754989     0.08286670     0.71596261    -0.07788768
O      -7.92698499     4.49006428    -6.02440513     0.12859471    -0.64657794     0.27914910
O      -4.05204760     0.03930848    -2.10043613     0.45109311    -0.28617286     0.27896555
O      -3.96635327     0.14026394    -6.14496056    -1.10240661    -0.50144144     0.24652424
O     -11.54419708     8.72017453    -6.15441309    -0.24908179    -0.12646974     0.04541911
O      -3.89134248     8.61407607    -5.92626211     0.90114953     0.54136277     0.33672411
O      -2.03929813     4.15393053    -4.05332071     0.17248648     0.73544371     0.53051058
O      -9.76351736     4.36107148    -4.10006577     0.48776248     0.06397267     0.31251857
O      -5.87315032     4.02772130    -3.92457168     0.10507268     0.76510134    -0.55268073
O      -5.78921777     4.25663716    -7.86676760    -1.37601783     0.29585058    -0.53414695
O      -2.10014098     0.22976256    -4.04965147     0.44605607     0.63163402     1.30844691
O      -5.77907351     8.62044184    -7.91825098    -0.25264325    -0.79259068    -0.09836829
O      -5.99313690     0.31469279    -3.98437508     0.27474434    -0.32609455     0.28165649
O      -5.76240295     0.48540556    -8.16888468    -0.70440366     0.23861310    -0.41265920
