# total energy = -631.34279141 eV

CRYSTAL
PRIMVEC
        0.00279571     0.02951795    -7.98606283
       -7.83802570     0.01298533    -3.99532603
       -3.92160916     8.71933433     0.00634407
PRIMCOORD
56 1
Li     -3.99033095     2.26268290    -1.83523771     0.30717256    -0.18900792    -0.14813075
Li     -3.99220073     2.47752008    -6.01014280    -0.49494002    -0.43407679     0.04854794
Li     -7.90812685     2.17423473   -10.06201672     0.63589554     0.00036545     0.06811036
Li     -7.78398107     2.09444215    -5.86426182    -0.17565187     0.35841564    -0.22588855
Li     -3.92192426     6.50458648    -1.86596339     0.22650879    -0.11849274    -0.58704439
Li     -3.94839244     6.43524663    -5.98404340     0.09531513    -0.19362507     0.78091479
Li     -7.79298189     6.48684374    -9.83673687    -0.29145035     0.16912647    -0.51862814
Li     -7.88857557     6.56766037    -6.03704302     0.23603813    -0.16275646     0.46009532
Ti     -1.99328222     2.30476008    -4.23282708     0.92269473    -1.95483117     0.59435984
Ti     -5.74822417     6.63601009    -7.97217175    -1.09519902    -0.02862137     0.24744121
Ti     -7.87460673     4.45241392    -7.77891239     1.39108369    -0.60903779    -0.55160831
Ti     -7.72590066     4.42173974    -3.77300049     0.63709309    -0.05086440    -1.76471235
Ti     -3.67130352     4.34265288    -7.76635513    -0.69529872    -0.98113635    -0.41736164
Ti     -3.93809097     4.33584616    -3.70603377    -1.27242919     0.78453736    -0.12653121
Ti     -2.09483916     0.05866901    -2.11900227    -0.52786557     0.59459360    -0.28856661
Ni     -6.00400806     2.45730224    -8.00109661     1.58368327     0.57788007    -0.14638984
Ni     -5.89832832     1.97702012    -3.94017189     0.33441265     0.51902902    -0.13518428
Ni     -9.86267095     6.58601689    -7.82794262     0.04828045     0.00117589    -0.84902990
Ni     -9.77778884     6.49033413    -4.03681092     1.56135273    -1.03438360    -0.26287340
Ni     -1.92271908     1.96380885    -7.99317955    -0.00929311     0.92953766     0.16318485
Ni     -5.84417763     6.71625890    -3.95991628    -0.09262143    -0.76756787    -0.49647096
Ni     -5.99137112     8.66846407    -6.05754744     0.32996988     0.21055046     0.62511516
Mo     -9.90728347     8.71942933   -10.23132221    -0.53085660     1.45999874     0.64179097
Mo     -9.82624721     8.69349889    -6.32838400    -0.19049670     0.55161665    -0.92855623
O      -1.88956835     1.95447227    -1.86970529    -0.28363220    -0.48844055    -0.52734494
O      -1.96045727     1.81846320    -6.12522246    -0.63977921     0.16510401     0.86651543
O      -5.79406707     6.84011891    -1.97714667    -0.41051875    -0.08025386     0.20253344
O      -5.94464284     6.80755843    -6.02301179     0.71325170     0.83397423    -0.09911369
O      -5.85038113     1.95286576   -10.07521087    -0.65778716     0.14266561    -0.37156192
O      -5.84765704     1.88812246    -5.77065387    -0.31502675     0.15078476    -0.43309951
O      -9.84598724     6.95272285    -9.66659805     0.59122957    -0.53957557     0.24111460
O      -9.82033757     6.71310515    -6.02154105    -0.42537883     0.47978076     0.33938847
O      -3.90351334     2.34130061    -3.99006771    -0.00611831     0.31297158    -0.11750370
O      -3.94093292     2.45262526    -7.91663939    -0.02823020    -0.17856016    -0.21392080
O      -7.82931261     2.42329972    -3.97489956     0.36306280     0.13509912     0.19893689
O      -7.86517590     2.44411488    -8.06729947    -1.01282086     0.13627342    -0.25229381
O      -3.88211295     6.28180178    -3.90560748     0.87737993     1.04499024    -0.08045407
O      -3.83675192     6.28600873    -7.92214443    -1.13394751     1.32089804    -0.42307612
O      -7.81777694     6.39591086    -4.14420116    -0.52074913    -0.18920847     1.09489669
O      -7.77494606     6.33828200    -7.94643453    -0.48311123     1.15239096    -0.32737620
O      -4.05419884     4.28685792    -1.95646353     0.44425033     0.11180615     0.13423115
O      -3.92179912     4.43997752    -6.02418035    -0.07237726    -0.40382502     0.80015596
O      -7.92262009     4.55541979   -10.05555863    -0.02442852    -0.32544157     1.53730100
O      -8.01882658     4.38586021    -6.07959885     0.11201045    -0.09293150     1.71452782
O      -3.94500764     0.11911859    -2.07666481    -0.23036370    -0.62319741     0.45584821
O      -8.07031548     8.62971975    -5.94424707     1.22526641     0.04285118    -0.61309846
O      -7.70678218     0.04846126    -6.01164641    -0.14231859    -0.49169549     0.24758063
O      -7.78887543     0.08570791   -10.07464230     0.73002208    -0.19230573    -0.22624888
O      -1.98841830     4.14389269    -4.07649210    -0.76626512    -0.01279603    -0.25632282
O      -9.70669368     4.59812220    -3.98598813     0.15243089     0.37730157    -0.39735235
O      -5.79832203     4.87077854    -4.02788227    -1.00382967    -0.74311108    -0.01330034
O      -5.94207239     4.38046075    -8.00438003     0.39720721     0.40259262     0.06373198
O      -1.91697098     0.16023957    -4.00619100    -0.07407510    -0.19931679    -0.07083999
O      -5.80178878     8.53198653    -8.02396200    -0.25002759    -0.97176099     0.03375565
O      -9.73529409     8.32169181    -4.01336161    -0.46287674     0.29281684    -0.12201989
O      -5.98151318     0.64537953    -8.08891574     0.38102568    -0.96845781     0.60008768
