# total energy = -630.51024450 eV

CRYSTAL
PRIMVEC
        0.00279571     0.02951795    -7.98606283
       -7.83802570     0.01298533    -3.99532603
       -3.92160916     8.71933433     0.00634407
PRIMCOORD
56 1
Li     -3.87885228     2.50487999    -1.83824568    -0.30680362    -0.15418345    -0.57117384
Li     -3.97102398     2.25339357    -5.99721672     0.41302287     0.11806919     0.02945443
Li     -7.69124169     2.16933576   -10.01002611    -0.59259936    -0.00867744    -0.08788553
Li     -7.67735771     2.08996686    -5.98698051    -1.02773091     0.30428801     0.20026388
Li     -3.97654491     6.50868721    -2.01034884     0.32196265    -0.13250430    -0.06206415
Li     -4.04292135     6.59103102    -5.91186208     0.61549450     0.28403611     0.12144701
Li     -7.80147378     6.55342546   -10.06132169    -0.40965831    -0.07549908     0.45844157
Li     -7.89896144     6.22856265    -5.83029405     0.31062357     0.49145522    -0.47851770
Ti     -1.96382863     2.33023312    -3.97091639    -0.19336592     1.25697985    -0.42352716
Ti     -5.91647430     6.64145661    -8.00647453    -0.61011466     2.15658396     0.36392808
Ti     -7.76435872     4.33760297    -7.72709744    -0.50808308     1.06956425    -1.06608009
Ti     -7.94909731     4.29644216    -3.76446224    -0.13154569    -0.80152531     1.01789400
Ti     -3.86061652     4.52491921    -7.71817886     0.74745731    -0.77990194    -0.12845008
Ti     -4.25195672     4.45513173    -3.77789570     0.88676764     0.10424659    -2.32662445
Ti     -1.76050517     0.06653076    -2.08879272    -1.05700007     0.28312661     0.39587071
Ni     -5.86278017     2.33347362    -8.01609024    -0.52201451    -0.78855071     1.82391669
Ni     -5.92457169     2.33403465    -4.19256479     0.57850712     0.72323377     1.04452167
Ni     -9.93553286     6.30841432    -8.10917816     1.97163455    -0.92587122    -0.01258859
Ni     -9.80198797     6.54596969    -3.96469415     0.26316893     0.37607750    -0.32636935
Ni     -2.08541438     2.03045269    -7.95435801     1.28528011     0.75019678     0.34332309
Ni     -5.98465500     6.64670083    -4.01254460     0.57093565     0.03912632     0.70245223
Ni     -1.94753984     0.10312771    -5.86100608     0.80647835    -1.27537922    -0.99256655
Mo     -9.77224835     8.70863054   -10.27785285    -1.39735695     0.18657037    -0.97353315
Mo     -9.66463278     8.64305525    -6.24951524     1.28959028    -0.05598535    -0.34915190
O      -2.01125378     1.97482854    -1.99750933     0.12664024     0.07638527     0.34465994
O      -1.90459178     1.90015224    -5.97893437    -0.46999803     0.70481060    -0.13194487
O      -5.94696461     6.85447326    -1.98438839     0.26890810    -0.01919228    -0.14125772
O      -5.88180208     6.93129248    -5.82171788    -0.63307277     0.48387523    -1.11596922
O      -5.89587135     1.75777486    -9.69268530     0.44854892     0.64732018    -0.55798502
O      -5.87531953     1.84921291    -6.05448841     0.26873574     0.62424331    -1.12662864
O      -9.78085724     6.72717827   -10.17556478    -0.57199213    -0.01933282     1.47936418
O      -9.72786559     6.81484451    -5.74652521    -0.91965234     0.42114412    -0.28527932
O      -3.86153148     2.61185025    -3.95234978    -0.44216048    -1.76529626    -0.76712742
O      -4.10468055     2.47194102    -7.98334935     1.11455602     0.87111663     0.39662130
O      -7.76223231     2.33406946    -4.06529911    -0.58451210     0.14793072    -0.15340244
O      -7.74665830     2.43941707    -7.97645826    -0.99908846    -0.26827910     0.29393685
O      -3.96203600     6.30625147    -3.94700387    -0.55536995     1.29119767    -0.52449649
O      -3.91200630     6.50881847    -8.05850583     0.07372253    -0.57475918     0.65091578
O      -7.87024070     6.25510551    -3.97965310    -0.19047244     0.25296298     0.23552142
O      -7.87772763     6.29689361    -8.01608183     0.13744233     0.14778503    -0.00327909
O      -4.02247365     4.47501895    -2.09695166     0.45032756    -0.09174747     3.79915823
O      -3.87811181     4.52993228    -5.97307475    -0.05860792    -0.17419947    -0.22433429
O      -7.51230403     4.19302598   -10.02736201    -0.69584123     0.53853008     0.08223326
O      -7.89489271     4.35171278    -5.98921876     0.52189641    -0.21808763     0.33969811
O      -8.01684916     8.69443206   -10.02903768     1.04811967    -0.36690372     0.09262039
O      -7.89168442     8.73309911    -5.99196439    -0.81818116     0.35471487    -0.36664888
O      -7.82373497     0.03663329    -6.14279585     1.20965666    -0.22220761     0.22953042
O     -11.67221019     8.70324650   -10.03791575     0.29824952    -0.23154123     0.40680015
O      -9.73181325     4.36172425    -8.07934867     0.12149457    -0.06235373     0.04243833
O      -1.98522619     4.01062534    -7.94592700    -0.60291775    -0.62123793    -0.12827733
O      -6.01142173     4.17848469    -4.14836814    -0.38262558    -0.16914767    -0.68108266
O      -5.78696720     4.84635755    -7.87332625    -0.87587952    -1.35482039    -0.04462344
O      -2.04483094     0.49178745    -3.98173013     0.02819746    -1.80829873     0.30322138
O      -1.96155664     0.07490881    -7.98003310    -0.34700646    -0.60019886    -0.83508636
O      -5.88883580     0.57029099    -4.06806182     0.17740248    -2.30083513    -0.09032463
O      -9.82299210     8.10492641    -7.97145425    -0.10689641     0.69738417    -0.33426792
