# total energy = -630.06913287 eV

CRYSTAL
PRIMVEC
        0.00279571     0.02951795    -7.98606283
       -7.83802570     0.01298533    -3.99532603
       -3.92160916     8.71933433     0.00634407
PRIMCOORD
56 1
Li     -4.05574658     2.27244051    -2.03123855     0.67412165    -0.25991254     0.56405292
Li     -3.92744037     2.55887178    -5.91397189    -0.39349845    -0.80516762     0.02992479
Li     -7.74368612     2.33314620   -10.02352203    -0.30648387    -0.09204043     0.37731274
Li     -7.89372036     2.05638961    -5.85733256     0.03572365     0.02140936    -0.21949443
Li     -3.92129299     6.42841632    -1.94000630     0.73401632    -0.04924047    -0.25374072
Li     -4.01122303     6.57109158    -6.01825802     0.78571363    -0.32608677     1.04449341
Li     -7.75023043     6.27703394    -9.96691500     0.02574836     0.59987908    -0.07784715
Li     -7.75454178     6.69816183    -5.90539783    -0.58440289    -0.21398802     0.48091886
Ti     -1.83117387     2.26176586    -3.98596208    -1.49865981    -0.59017972     0.47278023
Ti     -5.89297365     6.75675518    -7.86543949     0.92519036     0.07419427    -0.40148290
Ti     -7.76890675     4.49291205    -7.68992442    -0.58285106    -1.14741551     1.56556550
Ti     -7.88534572     4.33826324    -3.74246428    -1.11329817     0.84395371    -0.61831081
Ti     -4.02263575     4.40781301    -7.74275595     1.75966289    -0.46906934     0.73721219
Ti     -4.10206628     4.21290598    -3.76445785     0.61941428     1.65942936     0.38855936
Ti     -5.90488822     8.66468108    -2.06467463    -0.71044751     0.46962643    -1.35499800
Ni     -5.84515869     2.12753940    -7.87579653    -0.87912011     0.66671599    -1.27138095
Ni     -6.03668663     2.22981204    -4.03229751     1.13372628     0.11722631    -0.12320929
Ni     -9.81649492     6.40894944    -8.05994827    -0.44277346    -0.90186825     0.47260573
Ni     -9.75266594     6.58846453    -4.06689198     0.44270739    -0.12742399    -0.25127176
Ni     -2.03915354     2.16223450    -7.95712961    -0.08523122     0.65215427    -0.30491564
Ni     -5.78286903     6.55223053    -4.02967186    -0.38160736     0.44315867     0.83336271
Ni     -1.99522941     0.16598023    -5.99120425    -0.43843553    -0.92811233     1.13975537
Mo     -9.88720336     8.68549975   -10.23045137     0.74954172     0.13977797    -1.78770714
Mo     -5.79023526     0.18136623    -6.50456834    -1.87128655    -1.67554164     2.65309122
O      -1.95419105     1.94695842    -2.02511183    -0.28433214     0.00958276     0.70245779
O      -2.19722250     1.98216417    -6.01740951     1.75069773    -0.56400691    -0.23720717
O      -5.75809200     6.71837144    -2.02637357    -0.49527822     0.26369110     0.47432296
O      -5.83536062     6.99119559    -5.83234625    -0.27171942     0.08179327    -1.50991420
O      -5.87476612     1.83829923    -9.71944340     0.07750462    -0.07154233    -0.03902347
O      -5.93052842     2.05791173    -6.04817840     0.32371141    -0.21438463     0.47970830
O      -9.69525775     6.78717662   -10.15170279    -0.26106156    -0.46675310     0.23227595
O      -9.71633681     6.91782778    -6.08076953    -1.02705071    -0.83458841     1.42630976
O      -3.99251297     2.33796748    -3.98171931    -0.25076465    -0.00202004     0.05468785
O      -4.04181173     2.39683073    -7.89393764     0.57988942     0.35546621    -0.41590754
O      -7.92666362     2.34171825    -3.98780933    -0.04739477     0.42683234     0.23685652
O      -7.83585236     2.37671840    -7.92628971     1.61856773     1.09287646    -0.23821532
O      -3.85079761     6.22374209    -3.94442250    -0.47601140     0.04454990    -0.46553245
O      -3.87554140     6.35499513    -7.83626669     0.03015393     0.62647470    -1.26406711
O      -7.78719897     6.35562279    -3.92927486    -0.03884378    -0.83852828    -0.18324278
O      -7.79305971     6.39609080    -7.92864878    -0.90155528     0.11514358    -0.57282706
O      -3.91556029     4.32118529    -2.00522710    -0.21471444    -0.07279980     0.75435043
O      -3.91614416     4.36237410    -5.94000523    -0.10284988     0.57574088    -1.04829822
O      -7.90920144     4.26223522    -9.96410545     0.63135213     0.49525477     0.78902461
O      -7.72386506     4.51515355    -5.91519017    -0.37186892    -0.45310228    -1.80525248
O      -7.74321953     8.64359550    -2.06578586    -1.23017899     0.20979011    -0.07624962
O      -7.99544584     8.68435874    -6.03068725    -0.10089511     1.01630422    -0.28371912
O      -7.74858684     0.08547384    -6.13671395     1.77490257    -0.01965773     0.05882903
O     -11.62890978     8.63571477   -10.00709738    -0.37985054     0.40636567    -0.13573227
O      -1.99802767     4.18784937    -3.94890078     1.29813640     1.22525239    -0.27207102
O      -1.99026255     4.22095647    -7.96490396    -0.11750938    -0.03806043    -0.42738044
O      -5.94956786     4.15635646    -4.00629034    -0.60982527    -0.38889210    -0.00904299
O      -5.85477186     4.83063081    -7.91077686    -0.88533408    -1.30715157    -0.41996936
O      -1.82381896     0.36799672    -3.99560147    -0.34359851    -0.51196433    -0.72312465
O      -5.92833621     8.58942100    -8.02427379     0.34560780     0.82645790     0.43748188
O      -6.03318091     0.39088262    -4.05165511     0.74056137    -0.66049292     0.39671836
O      -9.85248362     8.20687233    -8.20238466     0.66626722     0.44014703    -0.06903346
