# total energy = -630.56281244 eV

CRYSTAL
PRIMVEC
        0.00285542     0.02004370    -7.95977623
       -7.82940539     0.00763210    -3.98158109
       -3.91729101     8.74642787     0.01461334
PRIMCOORD
56 1
Li     -3.90303224     2.15483599    -1.95410011    -0.64978119     0.20579010     0.12260791
Li     -4.03056702     2.21768470    -6.11438041     0.25323553     0.07757475     0.62720886
Li     -7.85049003     1.85958257   -10.02035883    -0.02131968     0.50945724     0.25115114
Li     -7.94321167     2.21436785    -6.00762629     0.36006252     0.12548722     0.22783238
Li     -3.93491095     6.31037971    -2.02207379     0.14746852     0.10160735     0.36404985
Li     -3.83956565     6.56300387    -5.85548018    -0.55519631    -0.06571333    -0.31234583
Li     -7.77075793     6.45891225    -9.91903646    -0.14327822    -0.11986492    -0.17211703
Li     -7.91282110     6.43348211    -5.86736541     0.21843060     0.10552669     0.18963082
Ti     -2.12279839     2.23493117    -4.06181227     3.45524313     0.02322026    -0.62543019
Ti     -5.83738489     6.54441485    -7.90339831     0.67240317     1.02686103    -0.19828488
Ti     -7.91696506     4.44741811    -7.65643323     0.42751879    -2.19526775    -2.64143474
Ti     -7.84202065     4.35959292    -3.75590740     1.30856042     0.28809824     1.53947184
Ti     -3.79958216     4.37205088    -7.72756357    -0.98551319     0.68346058     1.21876149
Ti     -4.01253556     4.39815261    -3.85521137    -0.76388030     0.54199586     0.15440842
Ti     -5.69656208     8.72963698    -2.08624259    -0.92883246    -0.22763619     0.26742487
Ni     -5.86589292     2.31022562    -8.04866368    -0.89589952     1.57634904     0.34441729
Ni     -5.93192173     2.13202828    -3.93834291    -0.20121487     1.59340153    -0.53160044
Ni     -9.84573235     6.73216624    -7.85528666     0.01257191    -0.65626146     0.49049147
Ni     -9.77660852     6.53290071    -3.91713962     0.43561601    -0.22730151     0.30528323
Ni     -1.99754713     2.37173964    -7.98199697     0.99968368    -0.98693091     0.50271944
Ni     -5.78792471     6.80063180    -4.03375683    -1.59733548    -0.66682987     0.75244900
Ni     -5.93325668     8.67789987    -6.02016608     0.23501599     0.49053619     0.16661138
Mo     -9.73480753     8.62941473   -10.13480394     0.70030305     0.64107260    -1.02522237
Mo     -9.74326095     8.74857242    -6.27020725     0.54071871    -0.73329776     0.80142282
O      -2.12494301     1.89171972    -2.07260530     1.43318765     0.34454398     0.73647605
O      -1.98622990     1.78368609    -6.02151345    -0.11807353    -0.23538100    -0.45188539
O      -5.83047889     6.80084470    -1.91280790     0.15815328     0.02166439    -0.95196809
O      -5.95926873     6.78307883    -5.93279590     0.58112511     0.60314423     0.07913109
O      -5.82489153     2.02403213    -9.91112216    -0.27700529    -0.74786502    -1.68736240
O      -5.97737570     1.89800953    -5.88978188     0.55431673     0.52133929    -0.47899817
O      -9.83989942     6.77624407    -9.75057650     1.22913545    -0.26715759    -0.41804739
O      -9.82672913     6.83468546    -5.83013249    -0.36686146     0.63011139    -1.24237886
O      -3.86786919     2.39723678    -4.07764741    -3.57892029    -0.37652296     0.39467384
O      -3.85332010     2.48889071    -7.95600377    -1.13492169    -0.76240715    -0.63711690
O      -7.92790120     2.37586533    -3.97223488     0.05891908     0.12453991    -0.13946494
O      -7.83529965     2.46534622    -8.07789533     0.18765947    -0.07272329     0.84122645
O      -3.96342345     6.38811293    -3.97919529     0.74096309     0.14400831     0.11664859
O      -3.81896285     6.36987875    -7.93444431    -1.20204913    -0.78595446     0.26793564
O      -7.88819963     6.38905095    -3.95683785     0.38051706    -0.00511365     0.09556206
O      -7.77430728     6.30773224    -7.95815870    -0.67497450     1.52228203     0.35825058
O      -3.98047966     4.37824995    -2.09743114     0.17046460    -0.18896096     0.69985362
O      -3.92626756     4.25902754    -5.94626263    -0.10465305     0.54152766    -0.87905598
O      -7.91962076     4.47146728    -9.95688331     0.11977797     0.18316560    -0.48750840
O      -8.03274766     4.43265065    -5.95264657    -0.28894822    -0.06720499     1.70039963
O      -7.84630660     8.67783174    -9.93612611    -2.02826866    -0.19383573     0.06278538
O      -7.95372186     8.69104416    -6.07536099    -0.60801602     0.24986434    -0.24858786
O      -7.78836406     0.11415351    -6.19604816     0.24165594    -0.63353382     0.14190748
O     -11.55713339     8.61641464    -9.95493653    -0.20364697     0.46938186     0.56118267
O      -2.00868079     4.15346013    -4.06216366    -0.42896687    -0.21368736     0.16495732
O      -9.77602751     4.39440820   -11.87737058    -0.58576729     0.10132124    -0.74666016
O      -5.95696945     4.19260444    -4.01817104     1.07048992    -0.76661529    -0.35961708
O      -5.94395289     4.37290748    -7.81321638     1.05399713     0.36812726    -0.64844173
O      -2.19733944     0.23187615    -3.94923493     0.79581195    -0.93114826    -0.60166302
O      -5.63960107     8.45012975    -7.90555482    -0.96071298    -0.45488737    -0.18124752
O      -5.99779986     0.27099658    -4.05589127     0.76907283    -0.22178957     0.76132330
O      -5.85086502     0.50328177    -8.09333510     0.09686096    -0.21823153     0.42346399
