# total energy = -629.77006785 eV

CRYSTAL
PRIMVEC
        0.00279571     0.02951795    -7.98606283
       -7.83802570     0.01298533    -3.99532603
       -3.92160916     8.71933433     0.00634407
PRIMCOORD
56 1
Li     -4.03627128     2.19298390    -1.86968567     0.23100488     0.27332348    -0.24235832
Li     -3.95760931     2.41376396    -6.19729617     0.41840928     0.16860368     1.18724291
Li     -7.74448067     2.07970501    -9.95410119    -0.24174613     0.23364448    -0.12113833
Li     -7.94869910     1.81753038    -5.80876033     0.16433961     0.90115914    -0.00742092
Li     -3.92258105     6.63786191    -2.22151067     0.20443484     0.25026450     1.16895840
Li     -3.81901482     6.67965961    -5.85104078    -1.21893122     0.14783030    -0.52592279
Li     -7.92288469     6.36899642    -9.97589328     0.28582545     0.02433356     0.26820397
Li     -7.98472161     6.54027103    -5.85987490     0.98317114    -0.86762247     0.26626966
Ti     -2.01648700     2.26228178    -4.03235420    -0.84522078     0.10794510     0.07122093
Ti     -5.96364648     6.76306450    -7.96558560     0.03479941    -0.25544135     0.24077869
Ti     -7.78575370     4.35585521    -7.65404217    -0.44925715     0.48528569     1.92331601
Ti     -7.98568302     4.29193020    -3.68396546    -0.57360640    -0.59639368    -1.14107446
Ti     -4.07448315     4.53903750    -7.77600369     1.39549068    -1.04860813    -3.01754812
Ti     -3.98511330     4.50991358    -3.73414533    -0.92772643    -0.66949327     0.20299977
Ti     -5.74811921     8.67672812    -2.20584258     0.71668711     0.64140509     1.04552141
Ni     -5.92134271     1.93333776    -7.75335256     0.24839146     0.93563808    -3.04080091
Ni     -5.89369922     2.45645888    -4.19518214    -0.61054398    -1.20666691     0.94461190
Ni     -9.71820923     6.32926506    -8.12467103    -1.38596423    -0.04752855     0.56106591
Ni     -9.83876042     6.63408532    -3.93742694    -0.13392144    -0.44396930    -1.14925001
Ni     -2.06503303     2.13317487    -7.99693926     0.32509060     0.43131861     0.19039005
Ni     -5.94469517     6.44658270    -4.00213597    -0.58964645     0.43386788     0.01373871
Ni     -1.84777296     0.05944700    -5.97516427     0.14706504     0.90980910    -0.45274395
Mo     -9.73560787     8.72729682   -10.33249818    -2.39045156     1.39781206    -0.90913206
Mo     -5.55933063     0.02335115    -6.29046838    -3.52495533     0.06149491     0.63994757
O      -2.06087254     1.96312180    -1.90551111    -0.02275903    -0.95602729    -1.01597038
O      -1.92470314     1.90736803    -6.07939314    -0.10587402     0.28093508     0.84909036
O      -5.93538563     6.81723124    -1.95684802     0.09285408    -0.66626952    -1.36396621
O      -5.90427714     6.98211378    -6.02518276    -0.16725178    -0.61496538     1.12571200
O      -5.87499402     1.76946636    -9.69465629    -0.01563465     0.80344343     0.82007047
O      -5.99539458     1.96629772    -5.99530204     0.87897853    -0.64632874    -0.05911944
O      -9.88532342     6.84414515   -10.09115444     0.60353432    -1.51946101     0.09369313
O      -9.78761630     6.87010608    -5.87004144     0.01594474     0.76885124     0.76987759
O      -3.94379101     2.50652408    -3.94192525     0.13039641     0.27424725    -0.72938023
O      -4.04971936     2.32785471    -7.99019289    -0.44286517     0.49698540     0.38242996
O      -7.76939888     2.32535735    -4.00112641    -0.52695557     0.82734938    -0.07761745
O      -7.98460899     2.47175570    -7.82948701     0.96652749    -0.82169781    -0.26724624
O      -3.94941128     6.40757257    -4.04715970    -0.02599783    -0.73009959     0.10215978
O      -4.01454409     6.43349753    -7.97712845     1.09418611     0.60499134    -0.09011309
O      -7.89311904     6.26967913    -3.81696869    -0.13722667     0.58789551    -0.86468790
O      -7.86965137     6.28983404    -8.06231995    -0.04302277     0.65381333     0.30125839
O      -4.06054646     4.48176689    -1.98546557    -0.16968740    -0.08670597    -0.37076849
O      -3.99974639     4.44129879    -6.10614204     0.33940359    -0.57803350     3.79668047
O      -7.94931650     4.26407203    -9.92697850     0.17720085     0.39318550     1.16269742
O      -8.01589251     4.61416019    -5.89011229     0.16148935    -0.38390308    -1.86216672
O      -8.00716508     8.64539113    -2.11885989     1.42596109     0.03526245    -0.09422244
O      -3.88711998     0.22031265    -5.96953084     0.78109484    -0.54864452    -0.27987660
O      -7.83792484     0.05055792    -6.21877875    -0.11836714    -0.79410602     0.24999305
O      -7.71845522     0.12468840    -9.96761455    -0.09926482    -1.00264949    -0.13000237
O      -2.03328866     4.39159815    -3.94302040    -0.00209991    -0.30445595    -0.62777065
O      -2.04824803     4.09926537    -7.98229160    -0.66832744    -0.51525733    -0.15327128
O      -6.07580580     4.26792823    -4.14407926     2.22298941     0.57804009     0.26621715
O      -5.96642341     4.70671821    -7.82132504     0.40091849    -0.03829185    -0.71043610
O      -2.00540759     0.35576828    -4.00970974    -0.40230026     0.41041176    -0.88209911
O      -5.94710327     8.60386914    -8.10241210    -0.00137330     0.96994276     0.35142931
O      -6.01884254     0.48377231    -4.15838884     1.03858710    -0.60426308     0.57884508
O      -9.68023324     8.14506261    -8.03471428     0.41052606     0.57833683     0.42465219
