# total energy = -630.35685775 eV

CRYSTAL
PRIMVEC
        0.00285542     0.02004370    -7.95977623
       -7.82940539     0.00763210    -3.98158109
       -3.91729101     8.74642787     0.01461334
PRIMCOORD
56 1
Li     -4.00583518     2.10407252    -2.08928707    -0.07928618     0.23708193     0.59327181
Li     -3.88776927     2.29083174    -6.04186218    -0.45019735    -0.34471516     0.38991453
Li     -7.80093064     2.35500724   -10.00163938    -0.29730361    -0.19378481     0.17296306
Li     -7.99219215     2.14862764    -5.94953194     0.60088983     0.04545067     0.14387909
Li     -3.92194934     6.41524721    -1.95271883     0.06257488    -0.27334948     0.34251790
Li     -3.79758205     6.62303729    -5.90338152    -0.34122876    -0.16196120     0.50617475
Li     -7.87892124     6.49800012    -9.91670616     0.20290512    -0.37244009     0.35096485
Li     -7.98897340     6.42259769    -5.78574415     0.72967159     0.08565132    -0.10605555
Ti     -2.03911239     2.23158346    -4.00726468     0.22126683     0.48006947    -0.16929292
Ti     -5.79349270     6.70461645    -7.79283278    -1.37213030     1.05511191    -0.48703467
Ti     -7.85099064     4.44487057    -7.54404604    -0.67399653    -0.73460964    -3.53898649
Ti     -7.76871287     4.31458410    -3.73133966    -0.20700676    -0.25856455     0.57611426
Ti     -3.97148594     4.29740185    -7.65360228     0.46595543    -0.03941283    -2.19747084
Ti     -3.93734920     4.48532727    -3.76694865    -0.66259371    -0.01188803     1.16362623
Ti     -5.68287936     8.63089095    -2.18037262    -0.67589670     0.96287280    -0.67273782
Ni     -5.93735224     2.36752264    -8.02208323    -0.56795402     2.05749762    -0.07020595
Ni     -5.92107445     2.25333173    -4.10620224     0.10772375    -0.61324563     0.03256627
Ni     -9.80728274     6.65976717    -7.90425605     0.23847432    -0.53551803     1.42551836
Ni     -9.81834593     6.37507991    -3.93084970     0.15885266    -0.36748052    -0.03131962
Ni     -2.01667180     2.33958828    -8.00960197    -0.32503987    -0.43114768    -0.03629779
Ni     -6.08647412     6.59876325    -3.87668435     1.82836144     0.31712673    -0.60974318
Ni     -1.86467097     0.07458643    -6.10651154     0.22916334    -0.54778304     1.09422791
Mo     -9.75662684     8.69072698   -10.20879806     0.25484252     1.01365902    -0.91290504
Mo     -9.70826605     8.66061710    -6.27813984    -0.65352742     0.84836742     0.33628362
O      -2.10519046     1.87113344    -1.95446521     0.87677324    -0.61686803    -1.34163642
O      -2.00096966     1.86001311    -6.15162997     0.21464244     1.02831226     0.57920402
O      -5.99132078     6.74098324    -1.98261481     0.68874149     0.62217113     0.23191436
O      -5.77733083     6.94839323    -5.88674835    -0.56832058    -0.65345486    -0.29908305
O      -5.93856974     1.98713974   -10.09977462     0.44789943     0.12966004     0.34422835
O      -5.94053857     1.96495273    -5.99601185     0.10863205     0.27871640    -0.20890034
O      -9.71474804     6.74904501    -9.74074811    -0.75026171     1.03599113    -0.87288124
O      -9.76865731     6.75224460    -5.90947973    -0.93057106     0.54229765    -0.50394363
O      -3.93494072     2.41505677    -3.98328483     0.01741896    -0.16543607    -0.69164292
O      -4.04734970     2.39994857    -8.00182352     0.80194043     0.60836585     0.19441628
O      -7.93948033     2.37218564    -4.04635479     0.20831226     0.31875754     0.35925907
O      -7.92297362     2.47089846    -8.02708704     0.55319868     0.05799531     0.61835559
O      -3.89467366     6.46185134    -3.79210527    -0.28915580    -0.44129782    -1.40938274
O      -3.96079754     6.23171738    -7.98143231     0.13809540     1.22669442     0.56881635
O      -7.91663803     6.23918157    -3.89905711    -0.25849355     1.06276542    -0.59288349
O      -7.77948616     6.34584213    -7.84591595    -0.31757562     0.71327980     0.40353985
O      -3.94814196     4.37347255    -2.00107940    -0.22990546     0.01244484    -0.56453484
O      -3.70739047     4.34140845    -5.96688801    -0.44171571     0.13152123     1.91437159
O      -7.83319924     4.42624499    -9.92574134    -0.07560279    -0.49312874    -0.42273243
O      -8.18041077     4.31642935    -5.89538389     0.52517484     0.22401407     2.23154288
O      -7.88795008     8.68739826    -2.18658394    -0.49404299    -0.32326762     0.53124538
O      -8.03980023     8.74212716    -5.84570958     1.11397982    -0.20314718    -0.65704583
O     -11.65185752     8.74075849    -5.94331017    -0.67059413    -0.38358838    -0.43891260
O     -11.57963270     8.67768231   -10.11552977     0.73267451    -0.36214708     0.45512263
O      -2.03145366     4.21643403    -3.93020772     0.56358804    -0.75734997    -0.47124261
O      -2.00747666     4.40507884    -0.02060165     0.00355091    -0.44213517     0.14805075
O      -5.86712841     4.15944472    -4.15666357    -0.39112008     0.11411480     0.13631046
O      -5.97359976     4.41108352    -7.76968175     1.24810393    -0.24755609    -0.10220424
O      -1.79740644     0.28638878    -4.18579200    -0.40207806     0.24170290     1.63211090
O      -5.76993390     8.61483379    -7.95636159    -0.51849270    -1.82529052    -0.44198529
O      -5.83252109     0.34793084    -4.10362523    -0.50388830    -0.23580995     0.82318307
O      -5.77251202     0.65715725    -8.03941805    -0.42769963    -2.99932766    -0.55173505
