# total energy = -630.76360689 eV

CRYSTAL
PRIMVEC
        0.00279571     0.02951795    -7.98606283
       -7.83802570     0.01298533    -3.99532603
       -3.92160916     8.71933433     0.00634407
PRIMCOORD
56 1
Li     -3.99882119     2.24347633    -1.93656027     0.06067875     0.01168935     0.08850491
Li     -3.86483361     2.00834641    -6.13065060    -0.29747466     0.19306627     0.70391712
Li     -7.74240419     2.19927928    -9.82039725    -0.65867472     0.17544420    -0.62780772
Li     -7.89258825     2.36256075    -6.01124366     0.12391378    -0.22124915     0.41491415
Li     -3.89008590     6.27690634    -2.03024018     0.15136173     0.73088922     0.75894142
Li     -3.81188854     6.39242659    -5.89539456    -0.36284492     0.18652728    -0.02881303
Li     -7.93236241     6.56043208    -9.89543904     0.83610082    -0.15481708    -0.23973043
Li     -7.71466250     6.35933706    -6.00896970    -0.54484225     0.21840222     0.56016396
Ti     -1.99395272     2.51664720    -3.84404777    -0.36140969    -1.30639273    -0.57018906
Ti     -5.82365418     6.79517920    -7.93544241     0.44283572     0.40358054     0.64439915
Ti     -7.58933997     4.41623745    -7.91259907    -0.43651649    -0.42630680     0.31487881
Ti     -7.92051729     4.37924080    -3.74978649     0.73761189    -0.08247178     0.20550265
Ti     -3.87943674     4.46907251    -7.75376908     0.40362261    -0.74199781    -1.07942096
Ti     -4.13120857     4.45434756    -3.76781244    -0.74159805    -1.20032726    -0.87632709
Ti     -6.00167467     8.62111874    -2.22155553    -0.04318648     1.63310886    -0.54648820
Ni     -5.81479199     1.92558099    -7.96415729    -0.24649614     0.78300672     0.43468485
Ni     -5.89673352     2.26459640    -4.09989019    -0.24854085     1.01440263    -0.02882880
Ni     -9.83030853     6.32395171    -8.07078407     0.82083475     0.32109007     0.73920460
Ni     -9.72673638     6.59136907    -3.95542253    -0.40051885     0.59235353     0.59729719
Ni     -1.98141717     2.19352367    -7.91926284     0.06398456    -0.34765372    -0.73319657
Ni     -5.85553002     6.53480110    -4.00962723    -0.36719321     0.93990566    -0.03844679
Ni     -2.00224382     0.06966952    -5.97856393     0.28757095    -0.58111308     0.66363373
Mo     -9.89978324     8.72689528   -10.21142565     2.24467408     1.53380654    -2.15578238
Mo     -9.82800748     8.69818201    -6.25745149    -0.32134790     0.19805689     0.17968693
O      -2.09266092     1.94652821    -2.04029441     0.95350263     0.54789847     0.71819360
O      -1.96310495     1.88557934    -6.02984493    -0.10726238     0.03599194    -0.13823487
O      -5.87343886     6.74648474    -2.12512907    -0.20940045    -0.50945198     1.10990220
O      -5.73434174     6.85579450    -5.88281790    -0.87707847     0.77537151    -1.12276428
O      -5.86930634     1.93314218    -9.78491953     0.31936628    -0.06669366    -0.10066877
O      -5.91798906     1.93194525    -6.09932621     0.25683584     0.00101058     0.28711936
O      -9.71378780     6.85852017   -10.09790992    -0.80552471    -0.98139378     0.50559866
O      -9.76561021     6.90997100    -5.69632871    -0.27962623    -1.26306934    -0.90275723
O      -3.89783865     2.55030986    -3.99742355    -0.66532016    -0.86573055    -0.52756037
O      -3.97410269     2.47012252    -7.96270333     0.01752158    -0.45512867    -0.04538770
O      -7.86809859     2.41521710    -4.00746208     0.40598076    -0.23564488    -0.03834080
O      -7.96647537     2.41346687    -7.94981003     1.71507135     0.07593867    -0.60111218
O      -3.88722786     6.30889482    -3.89155478     0.03505303     0.62470183    -1.01793737
O      -3.81971680     6.50222302    -7.94345935    -0.20979752    -0.58676877    -0.14167659
O      -7.85888545     6.33283081    -3.96868655     0.49953694    -0.51586157    -0.32919669
O      -7.84271340     6.36483481    -7.94227390     0.39462972     0.27037484    -0.44043604
O      -4.07148288     4.34963526    -2.02955813     0.48888956     0.18925427     0.95827901
O      -3.90046068     4.46089503    -6.04874546     0.00489319     0.17644717     1.77893032
O      -7.91401131     4.43707352    -9.96393201     0.36823658    -0.16974575     0.41328108
O      -7.92683320     4.32116223    -6.19023039    -0.00235462     0.43285094     0.93766259
O      -3.93991103     0.05977504    -2.01112164    -1.01315262    -0.68829454     0.25962554
O      -7.95871716     8.69495590    -6.02136469    -0.03023115     0.55197040    -0.61738248
O     -11.69727454     8.69070432    -6.18283051     0.58398932     0.45154325     0.74696273
O      -7.68372778     0.15422745    -9.96969756    -1.44145420    -0.68657847    -0.13011376
O      -9.77807327     4.40718596    -8.11286499    -0.90471225     0.15687970     0.38566466
O      -1.94515344     4.08503546    -7.91818646    -0.73663752     0.15320358    -0.74125130
O      -6.00269256     4.17706420    -4.14149478     0.49320517    -0.29967513     0.11928875
O      -5.76461295     4.80489026    -7.93247265    -0.33535009     0.12709567    -0.49384224
O      -2.04080494     0.36011480    -3.99140730     0.11185755     0.11315478    -0.86677790
O      -5.78920343     8.64781396    -8.08177532    -0.23482274    -0.25281145     0.53140575
O      -5.76154540     0.45795296    -4.05541065    -0.74210216    -0.69000314     1.25696783
O      -9.88615227     8.22783901    -8.02643824     0.69328271    -0.62068712    -1.08079516
