# total energy = -631.17506002 eV

CRYSTAL
PRIMVEC
        0.00285542     0.02004370    -7.95977623
       -7.82940539     0.00763210    -3.98158109
       -3.91729101     8.74642787     0.01461334
PRIMCOORD
56 1
Li     -3.90611245     2.18257814    -1.82773772    -0.04734713     0.11174906    -0.77307906
Li     -3.89701875     2.12837810    -6.00024814    -0.20073620    -0.08082389    -0.07748189
Li     -7.79080883     2.47656509    -9.99039711     0.01339446    -0.32457522     0.09897663
Li     -7.84198122     2.01776274    -5.90271811    -0.10485090     0.69747903     0.08990120
Li     -3.90669379     6.54162728    -2.06129422    -0.19396991    -0.24942950     0.92982212
Li     -3.85833907     6.51959525    -5.80151072    -0.06679875    -0.09131348    -0.15631543
Li     -7.77265613     6.34005551    -9.88963953    -0.14844712     0.35371039    -0.05959915
Li     -7.82118078     6.90244922    -5.90568697     0.13124913    -0.54099853     0.22436233
Ti     -1.99859921     2.27098446    -4.05620900     0.19002125    -0.03476381    -0.14582877
Ti     -5.85166871     6.75738258    -7.97188163     1.15868702    -1.16148579    -0.20681142
Ti     -7.80990184     4.39419222    -7.68857943     0.33361426    -0.81018439     0.31715813
Ti     -7.84203030     4.47760321    -3.75234692     0.14015799    -1.60575983    -0.40574848
Ti     -3.84138790     4.39144449    -7.63934415    -0.73232751    -0.63255451     0.21322126
Ti     -4.02779908     4.44282730    -3.74583988     0.21869685    -0.79074473     0.62058024
Ti     -6.02267798     8.73627297    -2.23485520     0.64226879    -0.17832515    -0.13192434
Ni     -5.85129835     2.35302491    -8.00494311     0.06237933    -0.30562119    -0.27969355
Ni     -5.89438158     2.18610557    -4.02857037    -0.23315569     0.10746686     0.24139899
Ni     -9.73609945     6.55905553    -7.81415605    -0.29761408    -0.18252260     0.05669320
Ni     -9.80280796     6.40479457    -3.96592128     0.18604065     0.17174466     0.05723754
Ni     -2.01023685     2.31144305    -8.00615410     1.52902281    -0.38593257     0.48487048
Ni     -5.88091063     6.35730906    -4.05836513     0.13787706     1.16027372     0.70738382
Ni     -5.89759484     8.65086358    -6.04099669     0.77471322     0.27847632     0.93386708
Mo     -9.86686840     8.76436302   -10.12982826     0.42974060     0.40011769    -0.42285190
Mo     -9.88574181     8.74331743    -6.22083593     0.22309536     0.94637499    -2.02959241
O      -1.92397659     1.97392501    -2.06221291    -0.34977826    -0.88505796     0.03686740
O      -1.83928854     1.70266297    -6.03268142    -0.76552691     1.43405252    -0.34837243
O      -5.84776229     6.70675683    -1.96582642    -0.03708176     0.95284900    -0.87078695
O      -5.81496723     6.77722436    -6.01011346    -0.65843932     0.12986003     1.12923840
O      -5.86534627     2.04143002   -10.02296989     0.49590819    -0.48420085    -0.14926351
O      -5.92652858     2.02191167    -5.92438993     0.09880489    -0.66665456    -0.17414727
O      -9.73391797     6.93698186    -9.75352390     0.49147006    -0.59803609    -0.04541453
O      -9.78526401     6.88074235    -5.88954688    -0.23286974    -0.56610219    -0.05916390
O      -3.84960963     2.27757459    -4.05752600    -0.87176975     0.95958654     0.50376985
O      -3.91961354     2.43024435    -7.97096172     0.35437040     0.43783546     0.47212301
O      -7.87624174     2.43233269    -3.96372941    -0.42556862     0.26512619    -0.14538847
O      -7.74327821     2.42861882    -7.98789976    -0.71927320     0.38585184    -0.05889812
O      -3.83814511     6.37691410    -3.86188610    -0.18291952    -0.18150115    -1.20578744
O      -3.89929237     6.31174902    -7.86751278     0.12719396     0.42948638    -0.15447988
O      -7.86193343     6.40093320    -3.96919613     0.08718461    -0.00805889    -0.11180502
O      -7.72267994     6.32428830    -7.97796654    -1.15567384     0.77076514     0.72408379
O      -3.80966244     4.47085871    -1.99705269    -0.18845382    -0.54144562    -0.55723893
O      -3.76995496     4.30568718    -5.85625897    -0.08230317     0.40762503    -0.68091757
O      -7.76402688     4.41956042    -9.94220112    -0.63960280     0.07899927     0.10361975
O      -7.90509186     4.35513009    -5.95844417     0.38102472     0.31233197    -0.20783392
O      -3.87425354     0.06257709    -1.96122137    -1.26919746    -0.13162293     0.13311057
O      -4.15267802     0.10717703    -6.05991573    -0.01208744    -0.60774133     0.01211607
O      -7.84232237     0.07065524    -5.98832480     1.30556569    -0.63972997    -0.39334170
O     -11.56048886     8.74190748    -9.86828937    -1.13226050    -0.35988417    -0.22550850
O      -1.99521621     4.16883387    -3.96595896     1.05524433    -0.14247412    -0.35080013
O      -9.75574412     4.46481470    -4.06617746    -0.42906747    -0.31517148     0.28609124
O      -5.95224540     4.14015288    -3.98637799     1.42045279     0.18663484    -0.42738536
O      -5.74918152     4.31963078    -8.02502919    -1.11713695    -0.32205865     0.55989665
O      -2.05332173     0.19451870    -4.07563024     0.45532754    -0.39045394    -0.22422463
O      -5.66531358     8.52535779    -7.93785365    -0.69508652     0.67111208     0.11328056
O      -5.93433222     0.19452476    -4.02604675     0.24246257     0.51771370     0.23731729
O      -5.88238269     0.46114189    -8.11313231     0.04454158     0.95591333     1.71053153
