# total energy = -629.51232473 eV

CRYSTAL
PRIMVEC
        0.00279571     0.02951795    -7.98606283
       -7.83802570     0.01298533    -3.99532603
       -3.92160916     8.71933433     0.00634407
PRIMCOORD
56 1
Li     -4.05728103     2.34416092    -1.98606276     0.50034057    -0.06301469     0.56060749
Li     -3.89653049     2.44165018    -5.99401242    -0.46762944    -0.61674226    -0.24752234
Li     -7.94716006     2.13164661   -10.01039034     0.47204993     0.04172060     0.17900376
Li     -7.79482731     1.94825827    -6.11735782     0.05908443     0.02356457     0.46484290
Li     -3.84155376     6.37505247    -1.97444967    -0.51832764     0.33506499     0.11940336
Li     -3.90010914     6.41819257    -5.86245788     0.07490259     0.45390812     0.10527229
Li     -7.72690889     6.52909803    -9.98670448    -0.49394922    -0.65050254    -0.40329486
Li     -7.89236929     6.44066696    -5.78695782     0.04166565     0.28653640    -0.25284364
Ti     -2.09449281     2.26427645    -3.94832475     0.84014670    -0.78403365    -0.33854683
Ti     -5.91286736     6.72738845    -7.94110579     0.26419186     1.23699018    -0.08024343
Ti     -7.71845345     4.31706220    -7.71683003    -0.41766027    -0.15610765    -2.47326783
Ti     -7.70447752     4.28775841    -3.85545561    -1.44485284     0.55248560     2.81642695
Ti     -3.89079764     4.43220655    -7.73987163     1.83466550    -0.77467366     0.50606672
Ti     -4.06345052     4.41600646    -3.81317009     0.53491870     0.93802672     1.17334637
Ti     -5.92904249     8.69164434    -2.14710296    -0.07775232     0.78576321    -1.25063705
Ni     -5.96484195     2.40711204    -8.19755060     1.31186444    -0.48644736     1.94439749
Ni     -5.88480443     2.18640609    -4.11066446    -0.38096679    -0.26314315     0.33104114
Ni     -9.77999244     6.45727566    -7.86143054     0.39989985     0.19484858     0.18415518
Ni     -9.81918778     6.45460152    -3.91582602     0.21554449    -0.05377423     0.03198191
Ni     -1.85454574     2.11921293    -7.91251885    -2.64128289     0.32582414    -0.38965343
Ni     -5.84148555     6.67807067    -4.06478777    -0.19734909     0.41504863     1.32931362
Ni     -6.12028078     8.68816654    -6.04382408     1.94061346     0.23128053     1.58661049
Mo     -9.77855971     8.72338037   -10.11038883    -1.89661220    -0.16380989    -0.61002900
Mo     -9.71563659     8.65958645    -6.34489143    -2.37233825     1.45574240    -0.97767655
O      -1.89492764     1.90230726    -1.94514523    -0.11593096     0.31531806    -0.57766015
O      -2.00567562     1.77574338    -5.98592141    -0.59664979     0.78574104    -0.54038616
O      -5.78411800     6.81112518    -2.07931958    -0.69207669    -0.14790828     0.44923786
O      -5.92053177     6.86085757    -5.89408396    -0.43117567    -0.67469668    -1.36331861
O      -5.89068123     2.14820886   -10.03753538    -0.48072265    -0.79733445    -1.12676279
O      -5.87223426     1.92741731    -6.13215164    -0.07305292     0.40794125     0.87951710
O      -9.72919291     6.83785945    -9.75397152     0.12816486     0.29618071    -0.80074129
O      -9.86312044     6.84860502    -5.84038605     0.68162366    -0.99967297    -0.57740813
O      -3.96656678     2.31393637    -3.95312744     0.28894863     0.90588137    -0.23813143
O      -3.99515407     2.55066441    -7.97131259     0.75910428    -0.55691676    -0.64758675
O      -7.94740019     2.32152052    -3.90748379     1.75593801     0.70480110    -0.92702836
O      -7.89989020     2.36447962    -8.05765658     0.10563651     1.07958834     0.40408239
O      -3.81502926     6.39857526    -3.86812397    -0.59273516    -0.83895836    -1.28979670
O      -4.04760248     6.45473076    -8.00535781     0.88520282    -0.67460237     0.97499097
O      -7.88863304     6.29466239    -3.95848812     0.61458179     0.46734914     0.23344074
O      -7.78715137     6.30277894    -8.11003448    -0.16236420    -0.03493076     1.38798448
O      -4.06055759     4.51685242    -2.02049048     0.18616496    -1.02647586    -0.87424224
O      -3.95837333     4.29028332    -5.93886239     0.52504839     1.44581967    -0.35046255
O      -7.81436791     4.42786401   -10.01252414     0.25550326    -0.18591431    -1.40729018
O      -7.86770843     4.59941540    -6.03239931    -0.25307094    -0.54476677     1.28647542
O      -3.93423859     0.20744256    -9.94681376    -0.21283895    -1.13059644    -0.20493105
O      -8.01152858     8.72886636    -5.86041234    -0.27748939    -0.41909424    -0.93740351
O      -7.70717619     0.06540084    -6.22600427    -0.04918694    -0.57567161     0.70079807
O     -11.60805512     8.65721077   -10.02952119     1.17448875     0.19884112     0.13984970
O      -2.02346689     4.13544147    -3.93685751     0.26137921     0.14346438    -0.17707901
O      -9.79080652     4.57079594    -3.97139903    -0.04228198    -0.52722945    -0.45214114
O      -5.86473317     3.97924913    -4.24437922    -0.54165046     1.06775143     0.27599929
O      -5.76764200     4.33082934    -7.95346812    -2.99278130     0.28117376    -0.36040967
O      -2.20250271     0.20943279    -4.07943882     1.01456498     0.04398481     1.58652652
O      -5.99320507     8.60471453    -7.94768189     0.10367746    -1.36907383    -0.56479179
O      -5.88928435     0.39937415    -3.94419150     0.20956943    -1.32461196    -0.12644262
O      -5.90545669     0.55241415    -8.19198161     0.76397004     0.26552181     0.96219990
