# total energy = -630.98994541 eV

CRYSTAL
PRIMVEC
        0.00285542     0.02004370    -7.95977623
       -7.82940539     0.00763210    -3.98158109
       -3.91729101     8.74642787     0.01461334
PRIMCOORD
56 1
Li     -3.86027774     2.04766513    -1.92368254    -0.38703198     0.23523247    -0.03262864
Li     -3.93011443     2.10139039    -5.92462720    -0.10535598     0.13725454    -0.33511357
Li     -7.75947090     2.56286334    -9.91951939    -0.09384349    -0.31716109    -0.27256715
Li     -7.73239856     2.38671525    -5.91529518    -0.13732951    -0.42514110     0.04740047
Li     -3.84036597     6.32577385    -1.97672277    -0.32809897     0.31045761     0.36248253
Li     -3.88446567     6.25962684    -5.86858595    -0.12552252     0.05264290    -0.75921837
Li     -7.74756520     6.62788919    -9.91945704    -0.51854441    -0.16282801     0.07103917
Li     -7.85774504     6.55061524    -6.05136845     0.17167583     0.34127111     0.94728039
Ti     -1.95576789     2.19370644    -4.00041189     0.46647515     0.63477204    -0.31461114
Ti     -5.83924652     6.71088808    -7.91737146     0.73483880     0.23314724     0.36458344
Ti     -7.87476183     4.40494327    -7.67238014     0.59223711     0.13748066    -2.09237261
Ti     -7.81402175     4.47550808    -3.76399596     0.05893348     0.16252384    -0.58008504
Ti     -3.87106058     4.24501970    -7.69744000    -0.02118862     0.94140109    -0.46802509
Ti     -3.98073760     4.31966157    -3.69473758    -0.66241696     0.40254045    -0.04340990
Ti     -2.07992718     0.04100875    -2.10427978    -0.39005073    -0.71832880     1.52249835
Ni     -5.88488996     2.44355413    -8.04397480     0.69594223    -1.78815195    -0.05727388
Ni     -5.89347594     1.95264480    -3.96015537     0.03973818     0.79340883     0.22951596
Ni     -9.82539621     6.63961779    -7.84878105     0.33994092    -0.00693268    -0.81131141
Ni     -9.70451130     6.44803257    -4.04395276    -1.15834482    -0.07009729     0.41162750
Ni     -1.83153510     2.18452529    -7.88720608    -0.80823780    -0.19957153    -0.69058331
Ni     -5.81884584     6.69677898    -3.96734929     0.20621179    -0.70485326    -0.06178554
Ni     -5.92579577     8.74348763    -5.91106782    -0.16480126    -0.80930220    -1.18910496
Mo     -6.07193055     0.04401687   -10.28055689    -0.03206442     0.16783987     1.16887794
Mo     -9.82887114     8.75993968    -6.29606800    -0.25919417     0.11046222    -1.71755992
O      -1.95302314     2.06775787    -2.07477423     0.69550442    -1.77915409     0.33208547
O      -1.94130934     1.78852988    -6.02972302    -0.09646270     1.14310819     0.90365661
O      -5.77226626     6.77607697    -1.91423969    -0.26282569     1.25440899    -0.52569625
O      -5.90855511     6.92543422    -5.95055773    -0.31565367    -0.54741326     0.72504841
O      -5.87391809     2.01779192   -10.01612808    -0.14754181    -0.77507214    -1.07924573
O      -5.84613198     1.93011441    -5.83931561    -0.04594280    -0.35502877     0.18505136
O      -9.78882472     6.92247569    -9.77554323     0.56575387     0.40305039     0.09831893
O      -9.82018939     6.82581185    -5.91612846     0.10493717    -0.56768139    -1.28055817
O      -3.89877593     2.32747110    -3.89740902    -0.29910771    -0.29743368    -0.48812780
O      -3.89671531     2.38495045    -8.06469313     0.19634292     0.13307343     0.88806064
O      -7.79858056     2.40537902    -4.00115398     0.27914805     0.63105690     0.63622980
O      -7.75414112     2.40500731    -8.01402527    -1.23430007     0.78408185     0.26991973
O      -3.77729036     6.29690324    -4.14335805    -0.25428343     0.05428251     2.48277781
O      -3.98238778     6.39309368    -7.73116195     0.67460382    -1.14713179    -1.22100443
O      -7.79596681     6.44385286    -3.96721058    -0.35941689    -0.47215243    -0.35396244
O      -7.83540557     6.31283836    -7.93087833    -0.17468044     0.11162314     0.17512026
O      -3.81360966     4.40498359    -1.93942475    -0.56822482     0.12747212    -1.08167119
O      -3.98813830     4.16058850    -5.94705936     0.68739189     0.30663596     0.28279364
O      -7.82095266     4.52019810    -9.97556182    -0.28017363    -0.69795534     0.24477533
O      -7.81448793     4.31013863    -5.96952080     0.22847145     0.35786084     1.36751855
O      -3.91441890     0.06599961    -9.88914861     0.37837081    -0.07100730    -0.62403043
O      -8.00401217     8.67861471    -6.17981977     0.23315672     0.37493202     0.73898271
O      -7.71711750     0.04231938    -6.02502514    -0.38585646    -0.03789263     0.17299360
O     -11.71861361     8.75210454   -10.04260361     0.66562801     0.41178869    -0.17271887
O      -1.98755594     4.09033285    -3.96491373     0.55158981    -0.55570005    -0.50804244
O      -9.80310218     4.54565004    -4.18467053     1.12544529     0.32999996     1.23101403
O      -5.82229005     4.82842319    -3.99754229    -0.59289986    -0.13480535     0.01439931
O      -5.84053951     4.34902649    -8.03107446    -0.57516282     0.05125167     0.24617132
O      -5.86169460     8.73309387    -3.94297185     0.02051261     0.67725299    -0.42333952
O      -5.91754980     8.54971014    -7.85535996     0.30764533     0.03148882    -1.06549453
O      -9.77541222     8.34313250    -4.08761103     0.26004574     0.25456391     1.00023885
O      -5.98348965     0.48914432    -8.14188193     0.32196976     0.70113315     1.06162800
