# total energy = -630.61954128 eV

CRYSTAL
PRIMVEC
        0.00279571     0.02951795    -7.98606283
       -7.83802570     0.01298533    -3.99532603
       -3.92160916     8.71933433     0.00634407
PRIMCOORD
56 1
Li     -3.83503551     2.30066683    -1.90189277    -0.42874421     0.02856876    -0.04821381
Li     -3.93753637     1.96777909    -5.97734753     0.20476279     0.17856739    -0.16059879
Li     -7.64950577     2.44499121    -9.88156593    -0.18906049    -0.54306694    -0.37507360
Li     -7.84574395     1.82003231    -5.92006273     0.06026019     0.76126364    -0.04438911
Li     -4.11914627     6.42237305    -2.02416776     0.76000833     0.58700413    -0.02438688
Li     -3.93696058     6.68492862    -5.95082180     0.25181682    -0.29086710     0.54676324
Li     -7.92951442     6.32750749    -9.82672337     0.19539937    -0.02648869    -0.85316539
Li     -8.00271124     6.34749124    -5.94685701     0.53358207     0.15643769     0.36501605
Ti     -1.89565982     2.28534200    -4.13959710    -0.57576047    -0.30793032     0.14895407
Ti     -5.86613349     6.64748628    -7.84987190    -0.14898552     0.99933851    -0.44828833
Ti     -7.64669485     4.31844758    -7.72470701    -0.53146935    -0.64194996    -1.13671391
Ti     -7.87897668     4.28878128    -3.77855985     0.10223111     1.31789887     1.33498066
Ti     -3.82249581     4.44125606    -7.74005383     0.17380091    -1.20600180    -0.17134705
Ti     -4.01934747     4.40215321    -3.78327732     0.35480607     0.94035399     0.78198346
Ti     -2.23232020     0.05041655    -2.10498308    -0.79064013     0.16526998    -0.29608402
Ni     -5.80377041     2.15752819    -7.86429319     0.20074468    -0.42397525     0.26290299
Ni     -5.93013412     2.42313531    -4.09132217     0.51257222    -1.92816289    -0.20319514
Ni     -9.75149201     6.36682849    -8.00306368    -0.91180841    -0.60138155    -0.56269919
Ni     -9.78474861     6.66718177    -4.00053518    -0.15163373     0.13969616     0.95487938
Ni     -1.84265111     2.17247570    -7.96680920    -2.15940622    -0.93144503    -0.18973738
Ni     -6.00363875     6.63422656    -3.92574617     0.49441029     0.32329764    -0.60182787
Ni     -5.95104063     8.73159634    -5.96846194     0.20618326     1.52705462     0.17116428
Mo     -5.99796160     0.10891465   -10.25319270     0.45401092    -0.49938201    -1.54155585
Mo     -9.81561135     8.62986353    -6.36761632     1.64102381    -0.15455499    -0.70904950
O      -1.95014515     1.87901631    -1.89705123     0.55712608     1.45239305    -0.22183716
O      -1.97638674     1.96568178    -6.04827909     0.26045343    -0.95908734     0.62786821
O      -5.95096444     6.94177122    -2.05621064     0.23073819    -2.23817307     0.50308334
O      -5.91621294     6.92290868    -5.89143355    -0.17065002    -0.60003325    -0.47683716
O      -5.77665252     1.92613089    -9.72185654    -0.47068457     0.06591873     0.12752182
O      -5.82287481     1.88794612    -5.97476170    -0.47465315    -0.11631877    -1.29812640
O      -9.77643194     6.83366842   -10.14720228    -0.25520903     0.43155600     0.13074374
O      -9.83848793     6.71127407    -5.79628236    -0.16855290     0.89047120    -0.70732884
O      -3.80211899     2.47065015    -4.02285248    -0.94522554     0.10560508     0.27080208
O      -3.93307940     2.35197802    -7.97022030    -0.24452369     1.14313007     0.42227828
O      -7.84811044     2.34351177    -4.05702105     0.79900353     0.45063237     0.37411669
O      -7.84679982     2.35498115    -8.00047277     1.12305520     0.29406729     0.55452248
O      -3.81622782     6.32841115    -4.06063709    -0.60067639    -0.26791421     0.31812987
O      -3.92716431     6.45315050    -7.89240164     0.15157408     0.33190145    -0.40563026
O      -7.86617643     6.30479362    -3.87268009    -0.39823501    -0.61619467    -0.76114865
O      -7.89184868     6.19122986    -7.97774616     0.72393660     1.37031764     0.50570004
O      -4.14367063     4.62287751    -2.00902213     0.58896901    -1.40197863    -0.57148434
O      -3.99289333     4.45843587    -6.00869415    -0.02007677     0.04122767     0.08979544
O      -7.74409884     4.29926643    -9.94280846    -0.49431002     0.09150134    -1.13716209
O      -7.67660630     4.32010555    -6.01573796    -0.18792598     0.22116082     1.62388110
O      -4.04797774     0.07763670    -2.30311918     0.15072367    -0.12265533     0.50227645
O      -7.93983463     8.61998451    -6.06929818    -0.70570201     0.42625452     0.23075375
O     -11.58193170     8.70907068    -6.22732073    -0.42024745    -0.23175759     0.40323127
O      -7.73636088     0.12154293    -9.90994688    -0.88986348    -0.45157914    -0.37174817
O      -1.93905119     4.32581280    -3.89606256     0.13397684    -0.22764613    -0.44990309
O      -1.93496418     4.03301249    -8.04751717    -0.35735935     0.59615840    -0.10958072
O      -5.97190292     4.24244089    -4.00956422     1.04125168     0.16241608    -0.50296269
O      -5.79339636     4.73486827    -8.06779111    -0.14833026     0.23749056     0.41797343
O      -1.87048406     0.33759193    -3.96039727    -0.33488107     0.35275424    -0.57338715
O      -5.99537947     8.61016252    -8.07031538     0.53285034    -0.65090269     0.49388363
O      -6.08260958     0.56599884    -4.05698931     0.54963306    -1.05951150     0.88248094
O      -9.68322926     8.19082012    -8.21680120     0.16373140     0.15263737     1.77650564
