# total energy = -630.47216018 eV

CRYSTAL
PRIMVEC
        0.00279571     0.02951795    -7.98606283
       -7.83802570     0.01298533    -3.99532603
       -3.92160916     8.71933433     0.00634407
PRIMCOORD
56 1
Li     -3.82977570     2.16699387    -1.85313429    -1.05525286     0.15387515    -0.26347838
Li     -3.98897734     2.05459245    -6.02353680     0.15838461     0.41395164     0.03371877
Li     -7.73506429     2.49687414    -9.94233661    -0.01190198    -0.18256546     0.17948752
Li     -7.82820346     2.30711890    -5.88547463    -0.25055990    -0.23721877    -0.12980295
Li     -3.87247648     6.89607377    -1.96946568    -0.42911979    -0.45259906    -0.12456606
Li     -3.94569150     6.29348183    -5.80349300     0.27699699     0.68797048    -0.26589762
Li     -7.71290755     6.50689462    -9.89177823    -0.47910328     0.05831044    -0.79549877
Li     -7.83617854     6.61483777    -5.92071003    -0.38154558    -0.04821173    -0.00364724
Ti     -2.06637717     2.13506027    -4.06933661     1.34434571     0.61835193     0.79698096
Ti     -5.82912847     6.76915359    -7.90651919     0.67945864    -1.82391958    -0.43645567
Ti     -7.74437394     4.42075535    -7.67094647     0.45259544    -0.04862504    -0.86135153
Ti     -7.64136426     4.36492696    -3.74038275    -1.89759964     0.03727311    -0.01232751
Ti     -3.79153585     4.40493989    -7.74400237     0.34956414    -0.01966410    -0.31275788
Ti     -3.90325268     4.40113437    -3.57779946     0.65956982     0.62311772     1.08396837
Ti     -2.24540723     0.05211000    -2.03851775     0.02717634    -0.47929482    -1.03614567
Ni     -5.82070140     2.24366832    -7.87065030    -0.47943124    -0.60664608    -1.54393829
Ni     -5.85211831     2.29912854    -4.11846264     0.12208279    -1.20097308     0.96526896
Ni     -9.70375330     6.42097888    -8.11686645    -1.84894385    -1.46831261     0.32152956
Ni     -9.80481115     6.57772299    -3.95552398    -0.06602048     0.10844277    -1.35690186
Ni     -2.00687760     2.14257055    -7.97433519     0.69946145    -0.21908133    -0.06998963
Ni     -5.93793566     6.44211042    -4.10071301     0.48264217     1.13027468     1.13486708
Ni     -2.06401587     0.09993291    -5.96007555     0.47735691    -0.85368722    -0.50077845
Mo    -10.06091818     8.62221162   -10.32546799     2.04582194     0.62851507     1.63393348
Mo     -5.87902077     0.04603803    -6.38528161    -0.67263223    -0.05635880    -0.22686996
O      -1.95417057     1.98380643    -2.00441476     0.30690738    -0.27547791    -0.30869662
O      -2.08932835     1.93507988    -5.98911291     0.82104971     0.14379371    -0.60840268
O      -5.85459148     6.84198304    -2.13955566     0.05201859     0.59618145     0.45608930
O      -5.73232888     6.91373168    -5.96787129    -1.86972576     0.71540158     0.00644229
O      -5.93279393     1.75423448    -9.76046251     0.08168189    -0.14664522     0.10559708
O      -5.87897359     2.02460599    -6.06205203     0.06566743    -0.08450544     0.55278207
O      -9.72507563     6.65414455   -10.14864016    -0.67754206     1.13897597     0.93346625
O      -9.83676287     6.92049111    -5.81701884     0.44071402    -0.28814346    -0.01071009
O      -3.88199802     2.31793360    -3.93934874    -0.77860865     1.17375082    -0.27428896
O      -3.99920931     2.38826820    -8.00684389     0.24829739     0.52284371     1.14244757
O      -7.78432449     2.34142643    -3.96009787     0.12503364     1.00980769     0.10191889
O      -7.71598804     2.51870592    -7.93764289    -0.96782350    -0.05072954    -0.25755884
O      -3.86347171     6.29588261    -3.91306674    -0.31340778    -0.31918192     0.05305870
O      -3.90077526     6.50303936    -7.97228299     0.40246460    -0.12688131    -0.15034616
O      -7.91519752     6.30455860    -4.05620281     0.82517592    -0.09594288     0.31099780
O      -7.89819923     6.34152756    -8.04113713     1.79320931     0.84356854     0.98625383
O      -3.92843884     4.22839761    -1.79543980    -0.12402508     0.40816169    -2.07710039
O      -3.95677413     4.54543844    -6.01530485     0.11598045    -1.38282371     0.57547503
O      -7.61754549     4.63272852    -9.97152980    -0.23548379    -1.42039518    -0.22825854
O      -7.73465554     4.54355949    -5.94111928    -0.03305396    -0.36082773     0.38143991
O      -7.94087813     8.71887504    -2.04837608    -0.10930318    -0.22606581    -0.23873332
O      -4.09322092     0.09456938    -6.00764674     0.80579982    -0.08109097    -0.05722786
O      -7.65739934     0.12178925    -6.07736387    -0.42421288     0.14582244    -0.15170111
O      -3.92087356     8.62044297    -6.08615157    -1.04444531     0.10547909     0.24089318
O      -2.00338479     4.37972531    -4.02992432     1.14698961    -0.24796050     0.20119553
O      -1.86562194     4.02543102    -7.94491641     0.04653853    -0.01435753     0.18661355
O      -5.75009390     4.11917709    -3.97184845    -0.68535242     0.33088371    -0.51711650
O      -5.75797360     4.82419750    -7.87501661    -1.75553389     0.46358707    -0.42358164
O      -2.09248302     0.30822903    -4.07420563     0.75227195    -0.31496463     0.89044113
O      -5.99751680     8.74078882    -8.12063457     0.50032930    -0.45910257     1.30237282
O      -5.95090564     0.38940544    -4.02919140     0.30951999     0.44013055    -1.08847458
O      -9.72629260     8.18660308    -8.14781745    -0.25118128     1.02197620    -0.34048530
