# total energy = -630.51035193 eV

CRYSTAL
PRIMVEC
        0.00285542     0.02004370    -7.95977623
       -7.82940539     0.00763210    -3.98158109
       -3.91729101     8.74642787     0.01461334
PRIMCOORD
56 1
Li     -3.94786957     2.44925682    -1.79698482    -0.04886592    -0.47460254    -1.11680294
Li     -3.83329523     2.21489073    -5.97232499    -0.42558414    -0.09221663    -0.22233914
Li     -7.90260215     2.35643588    -9.84773814    -0.01675863    -0.25305922    -0.76198443
Li     -7.92537936     2.26970138    -6.03197715     0.98798239    -0.01065855     0.41105613
Li     -3.83633534     6.15270140    -1.74940019    -0.00793795     0.82920354    -1.13130604
Li     -3.91582453     6.48914904    -5.75079659     0.52894055    -0.01526063    -0.48327238
Li     -7.81520218     6.46868698    -9.80082914    -0.54030370     0.18560422    -0.42747391
Li     -7.83903311     6.44487777    -5.87872435     0.39469071     0.25118210     0.33419260
Ti     -2.01782249     2.17543955    -3.90722850     0.06998686     0.81235456    -2.19770568
Ti     -5.88689652     6.69030690    -7.86415483     1.20438118     0.63063754     0.54050998
Ti     -7.80571558     4.37926509    -7.72582161    -0.51898759    -0.20434335     0.43029862
Ti     -7.86598106     4.29872716    -3.66583017    -0.22915818     1.09889818    -0.36475538
Ti     -3.85470266     4.34910775    -7.77384914     0.36312381     0.26091041     2.19518145
Ti     -3.98916569     4.41168288    -3.79817929    -0.89215877    -0.32070760    -0.34541659
Ti     -6.09867195     8.74864675    -2.15822117    -0.43257837    -0.52573986     0.61630466
Ni     -5.84257063     2.33060255    -8.02316151     0.22143420     0.85601112     0.15596380
Ni     -5.95199973     2.23094010    -4.07362535     0.42454406    -0.34669287     0.09228800
Ni     -9.77642102     6.46488335    -7.77259988     0.27463517     0.76843890    -1.10809700
Ni     -9.64055081     6.56211674    -4.04051027    -1.49941868    -0.29240410     0.98130176
Ni     -1.87394225     1.97494955    -7.98867603    -0.25177708     0.42805073     0.61301118
Ni     -5.89245454     6.60013839    -3.88016138     0.43199769     0.11227926    -1.08315843
Ni     -5.89587755     8.75160733    -5.96386758     0.09820299    -0.37033483     0.30284585
Mo     -6.02917035     0.15258041   -10.23189562    -0.56168550    -2.39161096    -0.05098720
Mo     -9.85718652     8.72529261    -6.37696497     0.39164494    -0.59010033     0.52436985
O      -1.93433149     1.96358645    -2.04441156    -0.05467562    -0.38369259     0.97407699
O      -1.93456275     1.78746702    -6.01309126    -0.25408804     1.13362114    -0.26064325
O      -5.86233371     6.90703038    -2.04003532    -0.10773326    -1.33118679     1.66866058
O      -5.79729277     6.94128821    -5.87684044    -0.47033114    -1.05232752    -0.57142708
O      -5.97965208     2.01483756   -10.14103318     0.85156387     1.25520653     0.60250229
O      -5.94811701     1.91196246    -5.91974162     0.32890975     0.10388186    -0.14226340
O      -9.77438601     6.98956148    -9.74379463     0.14240375    -0.10305453     0.70295429
O      -9.76017202     6.75256551    -5.92927816    -0.15268681     0.52989929    -0.46752856
O      -3.96917404     2.41598817    -3.99722020     0.07633290    -0.56470473    -0.10101902
O      -3.73853434     2.35970380    -7.98648782    -0.72468095     1.01476098     0.69555038
O      -7.82137602     2.37381556    -4.02950433    -0.32845133     0.53806810     0.24399211
O      -7.84614804     2.40834319    -8.08024285     0.06538643     0.32121347     1.91561712
O      -3.80000761     6.29541428    -3.81148964    -0.07225606     0.62469209    -0.39274159
O      -3.81870931     6.31480835    -7.90619586    -1.45023853     0.12936576     0.14315962
O      -7.79094486     6.40502633    -3.89954231    -0.12256000    -0.74905665     0.00178705
O      -7.78011834     6.51210973    -7.84856051    -0.34169895    -1.61945491    -0.29763060
O      -3.96619607     4.31904426    -2.02797496     0.09424668    -0.32389344     0.90458224
O      -3.75257097     4.41127338    -5.96093587    -0.29850202    -0.47152166    -0.78237507
O      -7.78427250     4.33520630    -9.82474400    -0.20069589     0.60226103    -1.30013313
O      -7.61934524     4.42132848    -5.97520793    -0.88371435    -0.25770512    -0.34376131
O      -4.01136495     0.08660222    -9.93952540     1.31395844     0.33669069    -0.63363540
O      -8.02794459     8.70497220    -6.08712160    -0.26439630     0.13540723     0.51778371
O     -11.68021650     8.67415005    -6.09089971     1.10513210     0.46514522     0.00955876
O     -11.69858364     8.76022911    -9.93734232     0.54082848     0.40649460    -0.19472653
O      -1.96682989     4.08764898    -3.88732315     0.26901027     0.20336072    -0.21641718
O      -9.74778860     4.68765255    -4.11241933     1.00431852    -0.23932852     0.30525793
O      -5.94654198     4.73351925    -3.99938286     0.60853298    -0.70811632     0.25907762
O      -5.86257669     4.43065220    -7.90894887     1.17719419    -0.36373959    -0.57088557
O      -1.83885914     0.12113129    -4.04245434    -1.02222226     0.64495725     0.74375694
O      -5.81022958     8.52846530    -7.86223584    -0.14018834    -0.30962321    -1.00374690
O      -9.80955646     8.41707872    -3.99241690     0.18208352     0.30534238    -0.66419651
O      -5.73969400     0.53940150    -8.15926374    -0.92737877    -0.19894612     0.38078989
