# total energy = -630.09334833 eV

CRYSTAL
PRIMVEC
        0.00279571     0.02951795    -7.98606283
       -7.83802570     0.01298533    -3.99532603
       -3.92160916     8.71933433     0.00634407
PRIMCOORD
56 1
Li     -4.08589764     2.38120898    -1.91503547     0.52076408     0.14939036    -0.34588399
Li     -4.03430884     2.10133466    -6.17527126     0.16456763    -0.19603869     1.04544353
Li     -7.80532969     2.00094827   -10.02923943     0.31175291     0.24501468    -0.21845647
Li     -7.85552122     2.13607607    -6.00804014    -0.18121854     0.17844444     0.08700745
Li     -3.98853717     6.35360086    -1.88634143     0.02312338     0.24070522    -0.36040686
Li     -3.96776134     6.50241173    -5.72110736     0.03884926     0.27499375    -1.07167516
Li     -7.93821928     6.23621236    -9.76604283     0.52276447     0.67837225    -0.84552764
Li     -7.96048979     6.28088189    -5.73197199     0.32430741     0.20143878    -0.59891307
Ti     -1.92929246     2.31665353    -4.22931365    -0.38042770    -0.46177211    -0.13368503
Ti     -5.84613482     6.76094101    -7.85964058     0.06067607    -0.02323736    -0.28274954
Ti     -7.79746647     4.41342464    -7.72797300     0.79983308     0.33212801     0.79915213
Ti     -7.77138618     4.17917492    -3.71438225     0.28473685     1.37797101    -0.73350851
Ti     -3.90909072     4.32947714    -7.68734985     0.08360833     0.32488430    -0.27721589
Ti     -3.91084473     4.42044089    -3.82803890    -1.14797716     1.15705175     1.73000085
Ti     -1.97022281     0.07926339    -2.20420849     0.70813378    -1.13963752    -0.21232267
Ni     -5.87309612     2.11001977    -8.00806755    -0.67482624     0.24639633    -0.68745219
Ni     -5.88067471     2.24661951    -4.13988265     0.50814208     0.29120542     0.58324164
Ni     -9.71894450     6.64792799    -7.90527372    -1.36664846     0.59186527     0.40727770
Ni     -9.81094539     6.34651457    -3.84371904    -0.32181764     0.68782168     0.20707073
Ni     -1.96293208     2.04510587    -8.07076362    -0.12152936     0.53739871     0.50772123
Ni     -6.01405005     6.60247498    -3.98215597     0.75284967     0.09395100     0.61604451
Ni     -1.92600683     0.07707751    -6.01385514    -0.27648694     0.78176889     0.47688543
Mo     -9.83117684     8.72137903   -10.30917734    -0.61968167     0.11427329    -1.15791855
Mo     -9.79225730     8.63920986    -6.12679563    -0.18692848    -0.47218010    -1.14668663
O      -2.06451728     1.92665923    -1.95766863     0.33715746     0.81274405    -0.46248103
O      -1.90866682     2.00415538    -6.13373129    -0.33266927    -0.77917744     0.52796653
O      -5.90979278     6.87304506    -2.03071002    -0.46315368    -0.00929668     0.39706513
O      -6.00199524     6.99428380    -5.86664327     0.48667359    -0.43860952    -0.60081991
O      -5.89153208     2.03558412   -10.05907612    -0.16055025    -0.80742353     0.64431556
O      -6.01725713     1.98624826    -6.05994743     1.49028060     0.13031566    -0.43613466
O      -9.72732728     6.86272425    -9.92074344    -0.58881544    -0.68502843     0.38649608
O      -9.82297186     6.77804505    -5.80258006    -0.38823967    -0.28296812    -0.04088141
O      -3.83184345     2.45580754    -3.98408645    -0.05656841    -0.16594429    -0.84122943
O      -4.06093679     2.30610415    -7.97415775     0.57141499     1.27478933    -0.11359027
O      -7.73266137     2.31542872    -4.07320420    -1.02761757    -0.17095170     0.34952917
O      -7.71549795     2.47579788    -8.17138432    -1.75198337     0.42356528     1.12476287
O      -3.94120976     6.45604276    -3.96936330     0.28630386    -0.96246789     0.96899471
O      -3.95586621     6.47466721    -7.80550861     0.77649164    -0.76552937    -0.48592287
O      -7.92736959     6.19988457    -3.91487481     0.29685361    -0.04345343     0.12092715
O      -7.82458839     6.45929213    -7.84332226    -0.54329125    -0.58061633    -0.20750836
O      -4.10351443     4.46631514    -2.00448509     0.57652771    -0.26915909    -0.61589294
O      -4.03116828     4.51078430    -5.93271710     0.13567639    -0.35975620    -0.75767349
O      -7.82919804     4.44847576    -9.97562929    -0.10396543    -0.62592791     1.00566088
O      -7.94071563     4.28573575    -5.94414863    -0.20741599     0.34850586    -1.72738195
O      -4.13397171     0.06129900    -2.37167199     1.45153273    -0.11225188     0.72438698
O      -4.04754634     0.04835166    -5.90934149    -0.51206769     0.33716087    -0.47604829
O      -7.76392394     0.11118843    -6.14144754    -0.29802768    -0.67485931    -0.13254877
O      -7.75407250     0.04708971    -9.99788412     0.14053302    -0.22973679    -0.25638966
O      -2.01361470     4.34424608    -4.18376056     1.53600816    -1.07002359     0.61860304
O      -2.04860906     4.13520206    -7.95407752     0.66898493    -0.31282657    -0.12491474
O      -5.84954507     4.28019937    -4.14184313    -1.09320101    -0.78215651     0.34016424
O      -5.88682914     4.83522582    -7.89855811    -0.62788819    -0.49083932    -0.17098370
O      -1.89361237     0.34329421    -4.08186667    -0.23438390     0.85368151     0.48911583
O      -1.85638455     0.03637958    -8.16949557    -0.72756027    -0.44379466     0.49708314
O      -6.08832075     0.35306928    -4.18309054     0.38504486     0.54384021     1.25809967
O      -5.84646506     0.19192741    -8.03152719     0.32649659     0.06548689    -0.20817701
