# total energy = -630.63737281 eV

CRYSTAL
PRIMVEC
        0.00279571     0.02951795    -7.98606283
       -7.83802570     0.01298533    -3.99532603
       -3.92160916     8.71933433     0.00634407
PRIMCOORD
56 1
Li     -3.81380707     2.47894095    -1.78490087    -0.36343455    -0.24788516    -0.97008598
Li     -4.03999035     2.15449103    -5.88009435     0.19862700    -0.04469274    -0.51752274
Li     -7.88716554     2.38078266    -9.98756986     0.52072271    -0.07775697     0.28021027
Li     -7.72684330     2.00144869    -5.85203557    -0.87199409     0.40493879     0.03627768
Li     -3.88501775     6.38915007    -2.04769117    -0.27532192     0.05222653     0.43374171
Li     -3.97014295     6.44369624    -5.86742472     0.36955610     0.54428933    -0.11614817
Li     -7.86069155     6.57382310    -9.95427080    -0.46671992    -0.51248872    -0.16536593
Li     -7.66018928     6.51566555    -5.72282671    -0.87024041    -0.07271847    -1.41492609
Ti     -1.96766427     2.31176966    -4.15327104    -0.28241169    -0.19456452     0.19149760
Ti     -5.87302420     6.71868996    -7.95546559    -0.64836589    -0.16853690    -0.39820129
Ti     -7.80286785     4.32181614    -7.63489543    -0.01435569     1.01812359     0.49288799
Ti     -7.85785985     4.27861408    -3.77341621    -0.71542476     1.56794982     1.06851879
Ti     -3.85257666     4.38251225    -7.64514372     0.77562823    -0.51034360    -0.90346661
Ti     -4.01868571     4.46925796    -3.85946350     0.01102386     0.26626134    -0.16880243
Ti     -2.17621729     0.07235615    -2.10702440    -0.56703289    -0.30380058    -0.69369729
Ni     -5.82719111     2.36879917    -7.97829756    -1.02567490    -0.47862648    -0.11918649
Ni     -5.91004660     2.15657251    -4.00301696     0.00861992     0.31678067     0.63769924
Ni     -9.77779160     6.68730667    -7.93584781    -0.32329297    -0.55053177    -0.30321109
Ni     -9.74322416     6.53066509    -4.17036320    -0.48415449    -0.41952805     0.97674376
Ni     -1.99063818     1.98474377    -7.92536289     0.19133167     0.54939516    -0.80047089
Ni     -5.88520711     6.56407063    -3.93088422    -0.20061314     0.17210875    -0.14403442
Ni     -5.94302413     8.73978788    -5.93505541     0.35352488    -0.28823240    -0.50764823
Mo     -6.00027441     0.08721161   -10.29745432    -1.18992341    -1.32776967    -0.40983376
Mo     -9.82260358     8.62535733    -6.33239432     1.38167394     0.34760774    -1.95392901
O      -1.99977003     1.94418585    -1.86730342     0.99551028     0.03475239    -0.08396933
O      -1.96290713     1.87133673    -6.11639501    -0.46132909    -0.12351729     2.09367872
O      -5.97363619     6.83490635    -2.02687392     0.74366921    -0.13848514     0.32842573
O      -5.91359234     6.90441394    -5.94554795     0.82633545    -0.37548053     0.13869918
O      -5.89413135     1.91738545   -10.11214201     0.16882732     1.75263498     0.23844653
O      -5.91087700     1.84127678    -5.86592316     0.78569117     0.56778113     0.14478873
O      -9.89213727     6.88661704    -9.78125586     1.15408699     0.87093981    -0.35498947
O      -9.78464747     6.69403379    -6.09883181     0.60523066     0.23462111     0.56045514
O      -3.88163751     2.43713880    -3.91122874     0.17647947    -0.63893211    -0.78645618
O      -3.95600819     2.47012433    -7.94563516     0.56928500    -0.38455364     0.02894194
O      -7.87740074     2.38079674    -3.83932862     0.05877864    -1.06303205    -1.25246560
O      -7.76962105     2.42398347    -8.02159349    -0.69247816     0.03832868     0.34039178
O      -3.82312694     6.51996847    -3.96512063    -0.56636148    -1.54113220    -0.02993158
O      -3.98740669     6.26394087    -8.03169334    -0.06298735     0.95153045     0.37438786
O      -7.89687985     6.39509322    -4.01493178     0.99819129    -0.70719233     1.08759785
O      -7.79696456     6.28456270    -7.97757708    -0.00247230     0.14346309     0.33578794
O      -3.89861160     4.35245530    -2.13644226     0.30064888     0.27755678     1.12997896
O      -3.65266363     4.16065135    -5.93054443    -0.70079588     0.85726278     0.85382277
O      -7.75331552     4.36412185    -9.97273881    -0.19214490     0.08122611    -0.51329990
O      -7.82000741     4.26921770    -5.85686772    -0.04657892     0.13981599    -1.46827885
O      -4.00157843     0.14563857    -2.13003352     0.39659252    -0.74291918     0.41112050
O      -7.94141726     8.68367776    -6.21662400    -0.09741032     0.17011723     0.74947111
O     -11.51544422     8.65949285    -5.81663050    -1.28901728     0.04884891    -0.45461631
O      -7.79291911     0.03884452   -10.15324642     0.24136095     0.09898509    -0.41361001
O      -1.89908746     4.21494496    -4.15636564     0.28625734    -1.29084889     0.81410613
O      -9.77475958     4.71868487    -4.09825268    -0.50725431    -0.65605162     0.35687753
O      -5.91435488     4.46069369    -3.97892796     0.61113342     0.50991507    -0.69527286
O      -5.84743294     4.36048775    -7.77448339     0.47326224    -0.24399510    -0.54377995
O      -1.73787587     0.23260611    -3.97082293    -0.79312053     0.65196678     0.31614273
O      -5.89648911     8.52496618    -8.06061630    -0.04378453     0.03100672    -0.12027508
O      -9.65422911     8.34787809    -4.09717476    -0.24683030     0.53618070     0.41956887
O      -6.02302586     0.48206545    -8.19036219     0.65859641     0.36381294     1.65112098
