# total energy = -630.38107568 eV

CRYSTAL
PRIMVEC
        0.00285542     0.02004370    -7.95977623
       -7.82940539     0.00763210    -3.98158109
       -3.91729101     8.74642787     0.01461334
PRIMCOORD
56 1
Li     -4.02360049     2.10169673    -1.77377443     0.45870054    -0.06873005    -0.88088643
Li     -3.86867469     2.10320226    -5.94692609    -0.83690942     0.26349811     0.13250703
Li     -7.70203467     2.49503233    -9.92287537    -0.10553692    -0.65240544    -0.20740182
Li     -7.74337624     2.48440199    -5.78497062    -0.06337710    -0.44076060    -1.02879810
Li     -3.91356264     6.40621119    -1.94133538     0.11831613     0.28915518    -0.29799849
Li     -3.89890101     6.54688986    -5.93180711     0.37046963    -0.10405002     0.50700683
Li     -7.82588394     6.44628975    -9.91809554    -0.26399602     0.10079963     0.04025442
Li     -7.73687793     6.71519897    -5.83074054    -0.10472391    -0.91854798    -0.16535167
Ti     -1.94651467     2.29636150    -4.06537324    -1.06990456    -0.73018510     0.25075961
Ti     -5.76504206     6.61724029    -7.93770120    -1.59730319     1.10532174     0.20756877
Ti     -7.82035908     4.36866341    -7.80172006    -0.29795985     1.76981302     1.71758082
Ti     -7.98126988     4.28313967    -3.82440623    -0.07042279     1.41887352     0.82249712
Ti     -3.98164514     4.27522524    -7.71727489     0.96532546    -0.38628184     0.79910745
Ti     -4.08001509     4.42472154    -3.64829401     0.21762952    -0.54828356    -1.35683041
Ti     -1.76305331     0.08583875    -2.08862614     0.54121133    -0.10984936     0.43162542
Ni     -5.88427243     2.31741849    -7.91989717     0.32254638    -0.42847147    -1.08166442
Ni     -5.89956494     2.36410994    -4.03150438     0.83239664    -0.35909302    -0.21265954
Ni     -9.82129822     6.41154329    -7.86626632     0.29091739     0.51693489    -0.29611770
Ni     -9.83423871     6.40092885    -4.00369632     0.92659043    -0.33509942     0.51377462
Ni     -2.01613322     2.15070647    -7.91747032     1.09899588    -0.12378400     0.07260396
Ni     -5.88964556     6.41670045    -3.93308110    -0.49141229     0.80083481    -0.24849351
Ni     -5.93505555     8.75466077    -5.85904273     1.01792935     0.27626139    -0.47263686
Mo     -5.92873242     0.03350776   -10.35508524    -0.07745429     0.17400634     0.37175545
Mo     -9.70581847     8.68289265    -6.24785608    -0.12472847     0.57714855     0.14035577
O      -1.88913410     1.96574369    -1.83974836    -0.48003834    -0.30198276    -0.52173182
O      -2.09609428     1.89332994    -5.96125009     1.02209509    -0.38488195    -0.15651756
O      -5.97768368     6.93227545    -1.86252669     0.63434244    -1.00658806    -1.47920341
O      -5.75450246     6.93121450    -5.88047507    -0.79223559    -0.13246323     0.03267111
O      -5.85825311     2.10344885    -9.99946132    -0.50085319    -0.13908878     0.43621750
O      -5.76501167     2.09548399    -6.01501683    -0.69454791    -0.58169500    -0.12488640
O      -9.72794845     6.92337981    -9.88753835    -1.17989677    -0.38600855    -0.33247076
O      -9.74809310     6.78441007    -5.93410207    -0.94629490    -0.06007695    -0.19142200
O      -3.87554568     2.49192854    -3.89614684    -0.79578643    -0.19070513    -0.42801169
O      -3.87560870     2.28820980    -7.91542288    -1.05478536     1.22894260     0.35937190
O      -7.85758187     2.35409094    -3.99295945    -0.06278440     0.41617175     0.78261825
O      -7.89566653     2.40445256    -8.00127081     1.09849746     0.49329367     0.30520237
O      -3.96795860     6.37920955    -3.94350647     0.61849688    -0.72101156     0.56049027
O      -3.90154093     6.30268350    -8.01825769     0.09525558     0.83201996     0.63187757
O      -7.87574637     6.28715977    -3.94487720     0.00729690    -0.01159285    -0.24748989
O      -7.87588433     6.38757728    -7.89064233     0.45285426    -0.86300098    -0.06567901
O      -3.91200232     4.45419102    -1.91488812    -0.10703891     0.03267843     0.01368629
O      -3.81529625     4.52688884    -5.97687574    -0.28111868    -0.25749968    -0.38280961
O      -7.82261596     4.46572643    -9.96739963    -0.16389173    -0.47160652    -0.29975940
O      -7.88618881     4.42662353    -5.97644683     0.48602280    -0.29187087    -1.48514499
O      -4.19024814     0.08469380   -10.00629326     1.38835906     0.48437548     0.05936304
O      -7.91632218     8.55539560    -6.03178508     0.42363390     1.21365579     0.00267917
O      -7.68750372     0.05276215    -6.21440785    -0.73764429    -0.55562016     0.85777913
O      -7.67758929     0.16326805    -9.82807614    -0.11472487    -0.51313783    -0.78840988
O      -1.97159151     4.15347226    -4.01068029    -0.02048271     1.20868230    -0.02214324
O      -2.05034552     4.31045366    -0.09658420     0.75609989    -0.16090927     0.16302988
O      -5.96156873     4.25747813    -4.12290642     0.48239590     0.30406779     0.58677284
O      -5.84080616     4.60848961    -8.05793546    -1.08147619    -0.88945533     0.47804423
O      -2.02597168     0.31286728    -3.91026949    -0.29187898    -0.28088044    -0.39296968
O      -5.79822506     8.52352664    -7.99654495    -0.03103883     0.47730460     0.73390169
O      -5.84287829     0.51545084    -4.22935337    -0.50293249    -1.08406477     0.95685402
O      -5.83684862     0.42949856    -8.00377366     0.22150041     0.26427189     0.09063479
