# total energy = -630.99047732 eV

CRYSTAL
PRIMVEC
        0.00279571     0.02951795    -7.98606283
       -7.83802570     0.01298533    -3.99532603
       -3.92160916     8.71933433     0.00634407
PRIMCOORD
56 1
Li     -3.92995662     2.25327710    -1.72949399    -0.10786716     0.08437311    -0.97205717
Li     -3.86423071     2.23415148    -5.96174989    -0.30034411    -0.25767083     0.41512831
Li     -7.87627857     2.02767467    -9.92320181    -0.28884365     0.93789135    -0.14520216
Li     -7.75760862     1.95382913    -5.81079297    -0.23367047     0.62111853    -0.39407653
Li     -3.93826810     6.51992804    -1.95752548     0.35489409    -0.23670717    -0.17351954
Li     -3.83819914     6.36131182    -5.87991844    -0.13511215     0.16596507    -0.13215333
Li     -7.82599830     6.38720949   -10.00715245    -0.09408491     0.14437256     0.18493604
Li     -7.84699800     6.44751394    -5.85497363     0.04638621     0.07011414    -0.06010380
Ti     -1.92602981     2.24032749    -3.86010228     0.30251224     0.72590130    -0.70057930
Ti     -5.85409342     6.81949601    -7.90455760     0.76879934    -0.18381154     0.13433610
Ti     -7.83839049     4.45996956    -7.70266701     0.00436089    -1.16228075     1.08829036
Ti     -7.79663959     4.30440515    -3.76714320    -0.26563495     0.10884860    -0.88228948
Ti     -3.78048618     4.27643704    -7.61650242    -0.15761977     1.19576230    -1.74646673
Ti     -4.03205312     4.32751284    -3.75532214     0.33229216     0.77988790     0.78065583
Ti     -6.14767948     8.69049832    -2.07261724    -0.01170950    -0.14866130     0.47737005
Ni     -5.88748447     2.41829128    -7.90721313    -0.30539835    -0.64145526    -0.81677904
Ni     -5.90089406     2.08079312    -4.00160795     0.13806777    -0.19080033    -0.76654209
Ni     -9.73471062     6.60976923    -7.96494444    -1.42991895    -0.07146509     0.28474506
Ni     -9.72709615     6.44615429    -4.14950870    -1.09113117    -0.68601693     0.29697821
Ni     -1.96650887     2.06276674    -7.95285717     0.11657444     0.17008242     0.35683195
Ni     -5.81481794     6.63816125    -4.09170178    -0.16932579     0.30752791     1.81361783
Ni     -2.06300903     0.04277183    -5.93134075    -0.19427480    -0.97733221    -0.11328795
Mo     -6.13039366     0.05233756   -10.31929977    -0.16986318    -0.53903831    -0.62379919
Mo     -9.74106341     8.74147073    -6.48876874    -1.87653426    -1.24368309     0.76680792
O      -1.90565906     2.07284514    -1.98753380    -0.64954511    -1.64420098     0.62025450
O      -2.02175494     1.84281750    -5.99619837     0.15992171     0.28874364    -0.12651502
O      -5.81315896     6.77649308    -2.00391360    -0.61587338     0.38618076     0.49315771
O      -5.95977170     6.88683055    -5.91140110     0.23842470     0.19623711    -1.18941559
O      -5.84711464     1.92269836   -10.14803969    -0.55304000     0.45088005     0.06115326
O      -5.80311932     1.93874333    -5.95333220    -0.20468838     0.26120790     1.25552999
O      -9.78229981     6.96346689    -9.82511725     0.07746785    -0.00834720     0.33593827
O      -9.77318062     6.76657188    -6.10265684     0.18276532     0.56251833    -0.10261392
O      -3.92809920     2.36847009    -3.93513941    -0.32261026    -0.08319909    -0.26418446
O      -3.92720934     2.37831988    -7.89419402     0.45819991     0.46995738     0.19808448
O      -7.92921902     2.29171648    -3.96971955     1.12171234     0.42641253     0.33234101
O      -7.84976471     2.47365026    -7.96888413     0.26348947    -0.38096221    -0.13775596
O      -3.82262944     6.37226265    -4.02695845     0.51694955    -0.22550999     0.57837894
O      -3.95324876     6.30601084    -7.83452310    -0.50606589     0.21079375    -0.78692994
O      -7.88162787     6.33525523    -3.95529725     0.37162188    -0.25141753    -0.25257223
O      -7.80800358     6.43462556    -7.90144147     0.51590028    -0.91841828    -0.50670968
O      -3.88289035     4.40064284    -1.99812947    -0.46051282    -0.03160977    -0.22373828
O      -3.73642158     4.45851084    -5.89311442     0.11298186    -0.66407605     0.47369925
O      -7.87658670     4.24721578   -10.01376144     0.24688196     0.46316155     0.96471605
O      -7.82714722     4.21990599    -5.94828030    -0.01357993     0.75618912    -1.15146123
O      -4.01206710     0.04544777    -9.88203950     0.04094984     0.20339980    -1.05291521
O      -4.04268255     0.02939418    -6.19190039     1.31765786    -0.16052258     0.56230403
O      -7.63509324     0.09275298    -6.11267402     0.90404127    -0.67683961     0.17778942
O      -0.12126827     0.06167283    -6.03853619     2.27244469    -0.12801224    -0.61356387
O      -1.97342468     4.14963518    -3.96179088     0.37005254    -0.40668438    -0.10462976
O      -9.74404941     4.56639761    -4.18057531    -0.16744680     0.18360831     0.84697185
O      -5.87997162     4.79664194    -4.12121187    -0.18632458    -0.68019035     0.21133204
O      -5.82657139     4.22542364    -7.81321217    -0.03192360     1.12024447    -0.49616859
O      -1.79308617     0.10337706    -3.86068557    -0.87512910     0.30863568    -1.22641189
O      -5.89030135     8.61266022    -8.10470378     0.40727950    -0.34218081     0.29467727
O      -9.78974501     8.29520732    -4.12600654    -0.15777965     0.83774270     1.62873655
O      -5.92510928     0.58815850    -8.23182469    -0.15517479    -0.13442398     0.05832431
