# total energy = -630.57748809 eV

CRYSTAL
PRIMVEC
        0.00279571     0.02951795    -7.98606283
       -7.83802570     0.01298533    -3.99532603
       -3.92160916     8.71933433     0.00634407
PRIMCOORD
56 1
Li     -3.86933576     2.37286073    -1.89626465    -0.02935700     0.01479208     0.10086379
Li     -3.95325695     2.32806004    -5.85999940     0.21666767    -0.33452154    -0.79683543
Li     -7.88335039     2.37854740   -10.08151897     0.14952706    -0.26288312     0.60316124
Li     -7.78995898     2.48497285    -5.97919898     0.37309736    -0.68913541     0.51953513
Li     -3.84161164     6.57974756    -1.97468055    -0.66866053    -0.28165557    -0.12055404
Li     -3.82987208     6.70231641    -5.93018640    -0.46273510    -0.30125909    -0.04229069
Li     -8.08419881     6.29199637   -10.04057711     0.90896079     0.09009721     0.42691945
Li     -7.82218780     6.37818867    -5.84384928    -0.27956876     0.23721254    -0.63436814
Ti     -1.94225118     2.02142061    -3.87100316     0.67236057    -0.40146481    -0.86929538
Ti     -5.89595614     6.52016404    -7.91907156    -0.71725459     0.45495120    -0.74219919
Ti     -7.98397933     4.33069155    -7.79915949     0.93358545     1.61440801    -1.33013194
Ti     -7.79141071     4.34678547    -3.80048719     0.21323291    -0.00786895    -2.17468599
Ti     -3.85345412     4.47433214    -7.70034005     0.71690272     0.29571620     0.35956688
Ti     -3.89430806     4.30418756    -3.82470411    -0.79408071     0.54749173    -1.60195050
Ti     -6.18623728     8.65611219    -1.98401255     0.83030166    -0.43153574     0.93682713
Ni     -5.75459082     2.49179365    -7.97996301    -0.57669150     0.58972037     0.36329794
Ni     -5.87160472     1.90640072    -4.05301691    -0.05634112     0.67373714    -0.07184735
Ni     -9.92605979     6.60439481    -7.98802648     1.43251332     0.59387274     0.40119378
Ni     -9.79218275     6.50470858    -4.03191294     0.29788527    -0.42412383    -0.14122856
Ni     -1.93505113     2.19063219    -7.83949210     0.33651349    -0.01386040    -2.18184401
Ni     -5.79085579     6.52723803    -3.99387579    -0.97471955    -0.12376952    -0.32394715
Ni     -5.93738769     8.71267151    -6.03057619    -0.58025470     1.01603352    -0.79845955
Mo     -5.98487256     0.18096683   -10.20003134    -1.01505835    -0.59449295     0.49786387
Mo     -9.86272306     8.67802480    -6.38286080     1.46861893     1.31172750    -0.65414256
O      -1.89086600     1.89104892    -1.91993899    -0.35831773     0.16963904    -1.04045873
O      -1.97951223     1.82795902    -6.11740241     0.23999328    -0.20813994     1.79130951
O      -5.97411409     6.78187438    -2.01868436     0.41490960     0.24683489    -0.06489506
O      -5.97845703     6.90677001    -6.07293591     0.58268543    -0.85442417     1.17975718
O      -5.81447364     2.02259965   -10.13780442    -0.14412673     1.62131310     0.11649229
O      -5.80582773     1.93983221    -5.89724803    -1.11646603     0.80847065     0.43574284
O      -9.77164224     6.93769541    -9.85281894    -0.54238783    -0.08140710     0.38560699
O      -9.83126529     6.82599608    -6.02624282     0.30445334    -1.23288338    -0.41888248
O      -3.85190890     2.33072585    -4.02089762    -0.41718692    -0.22806118     0.98367595
O      -3.77618618     2.60464807    -7.91207475    -1.02835710    -0.91159056    -0.43076109
O      -7.85787297     2.35834101    -4.01242295     0.26982935     0.29359399     0.08442996
O      -7.75436345     2.46520719    -7.94951218     0.33294654    -0.99383978    -0.33953790
O      -3.92149252     6.34666069    -4.03138610     0.62517229     0.30433347     0.22209154
O      -3.96269209     6.49272941    -8.01306149     0.12742456    -0.74051225     0.37644936
O      -7.79359889     6.31925791    -4.01197186    -0.37649781    -0.16486296     0.49183747
O      -7.92178222     6.31675180    -8.03282835    -0.10086098    -0.40652849     0.07921566
O      -3.75229251     4.47851312    -2.11639865    -0.09954399    -0.17514888     1.37822285
O      -3.88028734     4.53335076    -5.94868605     0.50784975     0.07918641    -0.31636299
O      -7.72984290     4.32291239   -10.07359268     0.05465587     0.18725949     1.74543551
O      -7.79051857     4.40309802    -6.08550994    -0.38920289    -0.00883406     1.65543272
O      -4.02797261     0.19752267    -9.96989696     0.91582222    -0.21305603     0.04223784
O      -4.17821255     0.12663934    -5.94217097     0.56333986    -0.79563199    -0.22803458
O      -7.68081252     0.06278269    -5.97906666    -0.44691911    -0.31688347     0.05876499
O      -7.74229257     0.12001010    -9.94589503     0.12538414    -0.21851747    -0.41726485
O      -1.89751579     3.89783375    -4.29264867    -1.28133318     0.80959436     0.76002617
O      -9.79163124     4.51590002    -4.08872247     0.84408159     1.07109004     0.36943414
O      -5.77591223     4.56263553    -4.18377524    -1.05210770     0.15446385     0.82894879
O      -5.81779003     4.44307925    -7.92797697    -0.27342490     0.24241666    -0.64530484
O      -1.84487660     0.12425036    -4.10248851    -0.67164746     0.27622687     1.40362028
O      -6.02461869     8.43723095    -7.94309415     0.20046476     0.17348844    -1.07007426
O      -9.71455353     8.41402351    -3.92921600    -0.44641067    -0.33933799    -0.97718605
O      -5.83764332     0.74014468    -8.09172836     0.05484391    -1.91311174    -0.22606374
