# total energy = -630.12641329 eV

CRYSTAL
PRIMVEC
        0.00279571     0.02951795    -7.98606283
       -7.83802570     0.01298533    -3.99532603
       -3.92160916     8.71933433     0.00634407
PRIMCOORD
56 1
Li     -3.86803975     2.36383150    -1.76542539    -0.21696317    -0.33241079    -1.17317767
Li     -4.09092969     2.08311197    -5.92923770     0.65309638     0.29822477     0.05276908
Li     -7.98956651     2.28089662    -9.88212303     1.02931080     0.15264308    -0.61862350
Li     -7.94898066     2.25994877    -5.98528480     1.08268741     0.18291530     0.31206151
Li     -3.95618620     6.38915844    -1.84305831     0.38304566     0.20607016    -0.49305492
Li     -3.88763933     6.40451742    -5.86981678     0.23648385    -0.09758002     0.19803960
Li     -7.90672344     6.37433344    -9.88334684     0.19794917     0.77403151    -0.18342957
Li     -7.75253895     6.42105521    -5.93246882    -0.33243305     0.14206184     0.35979499
Ti     -1.96102455     2.22882644    -3.97502892    -1.28516303     0.87795748    -0.45330106
Ti     -5.77788511     6.73618298    -7.90561888    -0.81857374    -0.51262287    -0.29870816
Ti     -7.80768918     4.42339754    -7.75766449     0.21374958    -0.04021371    -0.37293528
Ti     -7.95396423     4.44140574    -3.69690462    -0.21733661     1.26593315    -0.68883481
Ti     -3.92282690     4.34101631    -7.69735032     0.40998342    -0.24362836     0.75803350
Ti     -4.11306411     4.45534836    -3.61513053     0.84805396    -1.35732172    -1.88690634
Ti     -6.01460493     8.67176483    -2.15037168    -1.43637207    -1.02578974     0.97237169
Ni     -5.83663793     2.21941761    -7.95204546     0.58201959     2.49943520    -0.50916022
Ni     -5.94768009     2.23846748    -4.01480845     0.28635620     0.02260837    -0.46194021
Ni     -9.74554350     6.52115434    -8.00185566    -0.77392739    -0.04988622     0.39136308
Ni     -9.79814402     6.55766249    -4.14822167     0.05278312     0.58913093     0.59264513
Ni     -1.84966317     2.16212039    -7.97912763    -3.07731988    -0.58793997     0.35999771
Ni     -5.87911040     6.56041327    -4.00086564    -0.26057554    -0.04057507     1.07967384
Ni     -5.88341247     8.73112462    -5.96768888     0.07615564     0.49376967     0.03781435
Mo     -5.95993527     0.11271940   -10.28030354     1.67072880    -0.78875476    -1.13839370
Mo     -9.75648715     8.55646267    -6.44952936    -0.41617101    -1.26981763     2.65899922
O      -1.94913930     1.92261766    -1.99077523     0.43044373    -0.17228841     0.27251065
O      -1.92805279     1.90893286    -6.08265944    -0.83109545    -0.96074401     0.69207815
O      -5.87769560     6.60247721    -2.03804079    -0.27326960     1.64437108     0.46593903
O      -5.84973111     6.86255108    -5.85946785     0.35331446     0.23474900    -0.98737934
O      -5.80134394     2.02492346   -10.10536999    -0.61246964     0.31397009     0.69024180
O      -5.95771242     1.82814638    -5.92777149     0.36766064     0.50292171    -0.10843269
O      -9.76494657     6.91431893    -9.84152449    -0.49681872     0.98973079     0.11014110
O      -9.72951444     6.54506283    -6.17995867    -0.23359453     1.60653001     0.99595200
O      -4.00387792     2.45477234    -3.92060461     0.82556941    -0.49852382    -0.64697297
O      -3.86201339     2.41173067    -7.97019661    -0.02653038     0.06380980     1.06509125
O      -8.00050330     2.56570319    -3.95944505     2.65319442    -0.84228755    -0.04619066
O      -7.70989876     2.47084097    -8.03427825    -1.36539773    -0.65440265     0.20743442
O      -3.88335118     6.34050327    -3.79005209     0.30824172     0.27456596    -1.32367936
O      -3.89104245     6.42643226    -7.94531540    -0.72191149    -0.25251147     0.30664330
O      -7.84488137     6.48826361    -3.89893940     0.07519005    -1.34129793    -0.68351313
O      -7.84793290     6.41266151    -7.89688605     1.00369682    -0.38460484    -0.57748782
O      -4.07200128     4.27049940    -1.90878312     0.34426284     0.40366417     1.17259465
O      -3.94965493     4.37137914    -5.92344774     0.24001193     0.28660406    -0.61316156
O      -8.20486087     4.57150004    -9.94674783     0.57560941    -0.85258706     0.21277809
O      -7.86665589     4.35239439    -6.03309543    -0.31322990     0.27928552     0.91425144
O      -3.97328117     0.10380256    -2.19036594     1.29322945    -0.52145334     0.57058915
O      -7.97513492     8.55399552    -5.94914226    -0.20708290     0.69246344    -0.42219689
O     -11.52009925     8.56541195    -5.92689412    -0.05723439    -0.14119471    -1.21372004
O      -7.68515831     0.19904977   -10.07389642    -2.05018448    -0.46470517     0.53214151
O      -1.99433583     4.06040238    -3.98976696    -0.00050418     0.24225626     0.35217083
O      -9.89993168     4.73704623    -4.20266096     1.00543975    -0.48650347     0.62555223
O      -5.96394860     4.39804345    -3.98687453    -0.98312124    -0.23176693     0.02859681
O      -5.86793608     4.38341609    -7.91506418    -0.02064193     0.09419154    -0.33457861
O      -1.82853238     0.25012686    -3.91959173     0.13746478    -0.18256635    -1.62505926
O      -5.83424945     8.49950931    -8.11276789    -0.14589602     0.40688428     0.30597052
O      -9.86654932     8.61404568    -4.08792290     0.38628421    -0.55585138     0.54913356
O      -5.69561696     0.47595803    -8.14521235    -0.51093037    -0.57989524    -1.07060498
