# total energy = -630.53209889 eV

CRYSTAL
PRIMVEC
        0.00279571     0.02951795    -7.98606283
       -7.83802570     0.01298533    -3.99532603
       -3.92160916     8.71933433     0.00634407
PRIMCOORD
56 1
Li     -4.02469824     2.34549626    -1.89980939     0.27037440    -0.32991116    -0.06816893
Li     -3.89570192     2.05574832    -5.80345555    -0.06378236     0.07050852    -0.49492896
Li     -7.90911693     2.52501058    -9.95585632     0.38842463    -0.04156160    -0.10696951
Li     -7.93552793     2.32430174    -5.98435485     1.22156251     0.17857759     0.65446109
Li     -3.85299741     6.34031837    -1.97415163    -0.00144146     0.54369593     0.04274684
Li     -3.93544645     6.38323192    -5.82156572    -0.10314329    -0.17374586    -0.99194096
Li     -7.87179256     6.43978722    -9.95004932     0.10889318     0.13042931    -0.07053908
Li     -7.98168991     6.61745128    -5.93460362     0.78974073     0.22429790     0.11019833
Ti     -1.88586221     2.02569062    -3.94757662    -0.64537688     1.12431954    -0.17469167
Ti     -5.85845852     6.62289951    -8.05809786     0.46448725    -1.52457223     0.66935965
Ti     -7.81761569     4.42452270    -7.73481755     0.45235236     0.70211111    -0.30179028
Ti     -7.81511560     4.45656016    -3.75006593    -0.03787574     0.13883612     0.16779521
Ti     -3.77106113     4.26932460    -7.69348780    -0.51113447    -0.03462001    -0.34117088
Ti     -3.99300321     4.35314459    -3.68543569    -0.02176877     0.17172784    -0.71234171
Ti     -6.17873570     8.70443657    -2.01202417    -0.24014816     0.74133785     0.41312778
Ni     -5.83826600     2.29406836    -8.02568797    -2.67893929    -0.60738877     1.32631198
Ni     -5.93304180     2.29136564    -4.03742819     0.29745642     0.34282147     0.44829446
Ni     -9.83028450     6.46438506    -8.00559903     0.41049407    -0.41642517     0.15839864
Ni     -9.78369111     6.60740074    -4.00673089     0.23497026     0.35293492     0.40921917
Ni     -1.90199687     2.06463098    -7.86679150     0.12432489    -0.69540092    -0.87465020
Ni     -5.80993302     6.75602120    -4.08062565    -1.03385722    -0.58080625     0.76814628
Ni     -1.93752280     0.02544808    -5.98845424    -0.96986055    -0.73545003    -0.45703734
Mo     -9.99002509     8.68530963   -10.26241722     0.58478083     1.11723775    -1.18117085
Mo     -5.92314574     0.14490029    -6.43258921     2.11146851    -0.53287661     0.79006139
O      -1.80975101     1.92799471    -1.97084687    -1.32136644    -0.59050260     0.08317138
O      -1.93954361     1.85802964    -5.97488871     0.02463393     0.35073850    -0.24062629
O      -5.85956495     6.82020198    -2.14265427     0.21574342    -0.05171419     0.61658406
O      -5.93431600     6.92294306    -5.90357064     0.58018651    -0.24044164    -0.76309381
O      -5.90963019     1.91240606    -9.83159644    -0.40983257    -0.47447139    -0.27874251
O      -5.86452113     2.02290589    -5.98528766    -0.03255071    -0.18136957    -0.91784053
O      -9.76790177     6.84518677   -10.03740249     0.13925551    -1.26473059    -0.81736620
O      -9.82275184     6.76901573    -5.85151457    -0.11772716     1.11457552    -0.63812758
O      -3.75095529     2.37877446    -3.86443523    -0.81935486     1.51288096    -0.16681511
O      -4.12252386     2.29434600    -8.00563476     2.59168316     1.26155633     0.28879403
O      -7.82084442     2.37863775    -3.88781701     0.17685083     0.18303137    -0.39235086
O      -7.87827056     2.44457543    -8.07170260     1.15778614     0.31805531     0.76882278
O      -3.95747201     6.29079072    -4.02500449     0.34161109    -0.08385813     0.64886328
O      -3.79328643     6.21006426    -7.99072411    -0.54239296     1.18948821     0.54636587
O      -7.84287139     6.42954618    -3.98321431    -0.16648011    -0.83099748     0.02810445
O      -7.77633276     6.39553544    -7.89861096    -0.67004557     0.10092297    -0.53761686
O      -3.98209622     4.50233878    -1.91937927     0.23094598    -1.39361286    -0.96568220
O      -4.02029829     4.33801550    -5.97060006     0.07775309    -0.05459244     0.44555702
O      -7.65327062     4.52680277    -9.95329188    -0.57869611    -0.43660888    -0.83366315
O      -7.74350804     4.30018436    -5.98671559    -0.33003493     0.12154226     0.22641306
O      -4.03454363     0.08633481    -9.92670797     0.04113088    -0.34273284    -0.23626698
O      -7.87051872     8.74005434    -6.13232846    -1.76192993     0.39474335    -0.00200150
O      -7.63414368     0.08141221    -6.02768035    -0.01175903    -0.16613737    -0.24536242
O      -3.90363019     8.55917940    -6.09503022    -0.54702768     0.65494848    -0.15695103
O      -9.71802762     4.58084589    -8.15730273    -1.09953007    -0.39893892     0.86680793
O      -1.88756292     3.89192077    -7.84748047    -0.29131686     0.77829414    -0.17985333
O      -5.93224416     4.11227405    -4.01669472     1.11361326     0.20460536     0.07720175
O      -5.86504404     4.72783335    -8.07237653     0.25599827    -0.43514053     0.49462944
O      -2.10943775     0.26880672    -3.94263730     0.67364013    -1.62107556    -0.14230852
O      -5.87838284     8.49129312    -8.12584935     0.49573801     1.47327130     0.74335644
O      -5.74713454     0.53306307    -4.00842115    -0.58586515    -1.87857710     0.29245578
O      -9.87567800     8.29526581    -8.19870938    -0.08160295     0.25756236     1.29094671
