# total energy = -630.63275526 eV

CRYSTAL
PRIMVEC
        0.00279571     0.02951795    -7.98606283
       -7.83802570     0.01298533    -3.99532603
       -3.92160916     8.71933433     0.00634407
PRIMCOORD
56 1
Li     -4.02596275     2.22176100    -1.86641359     0.79845664     0.19515475    -0.27056815
Li     -4.03364600     2.17435542    -6.04908263     0.76742101     0.16246012     0.46512780
Li     -7.59019273     2.50100089   -10.13204966    -0.71642136    -0.20980141     0.90716872
Li     -7.78726563     1.99296466    -5.90923374    -0.42665992     0.32998610     0.04908796
Li     -3.84052421     6.54165039    -1.78313979    -0.31464922    -0.07684578    -0.88939547
Li     -4.18518777     6.34567876    -5.90517382     0.79630695     0.23726107    -0.19728084
Li     -7.87781586     6.43479006    -9.97891595    -0.25221800    -0.07598915    -0.13227174
Li     -7.88276603     6.29346046    -5.85109050    -0.03237058     0.64127550    -0.35903036
Ti     -1.95910866     2.22441156    -4.12569655    -0.46528323     0.68175997     0.44854280
Ti     -5.91940923     6.70002143    -7.99291589    -0.23355293     0.89838867     0.49624260
Ti     -7.69229311     4.32020200    -7.73536625     0.04851239     1.56644829    -1.55648696
Ti     -7.82849164     4.33669862    -3.85116582     0.44956296    -0.24073292     0.39037942
Ti     -3.76699378     4.37656681    -7.78545675     0.19343831    -0.43534189    -0.60261156
Ti     -3.84505552     4.50029281    -3.75283378    -1.21850348    -1.41614094     0.10247197
Ti     -6.13980753     8.68265149    -2.14725275    -1.49631140     2.04163697     0.22630343
Ni     -5.89231961     2.06605503    -7.87959748     0.03899731     0.59606726    -0.88463963
Ni     -5.82676287     2.29801068    -4.05095680     0.44194502     0.57981966    -0.29787817
Ni     -9.81169508     6.44839431    -8.07710055     0.82371506    -0.58507696     0.22132372
Ni     -9.86568384     6.61432448    -3.92873542     0.19881623     0.34397083     0.17840703
Ni     -1.92313362     1.99806438    -7.96860827     0.17604953     0.67172059    -0.93140734
Ni     -5.86084244     6.75397913    -3.95313192    -0.99587533    -0.86936348    -0.45629361
Ni     -2.09556344     0.02615193    -5.89741876     0.70716528     1.02156096    -1.01263135
Mo     -6.10784096     0.05735224   -10.20825711     0.16200126     0.05003234    -0.28202583
Mo     -9.76612627     8.69218423    -6.33653237     0.43646192     0.22455543     1.05405457
O      -1.91562199     1.86471191    -2.13457133    -0.13365454     0.06106938     1.36762776
O      -1.89538974     1.94565112    -6.00633235    -0.37441185    -0.80814496    -0.74544880
O      -5.93698834     6.82299719    -2.02480827     0.81920840    -0.69011130     0.05145194
O      -5.95936840     6.93973225    -5.91153050    -0.37131870    -0.23739288     0.18845771
O      -5.81383383     1.95199708    -9.76965863    -0.95741447    -0.45712009     0.32863189
O      -5.85876160     1.95802839    -6.05295709    -0.61100292     0.11359634     0.44883763
O      -9.94599917     6.91127422   -10.03113264     0.75721323    -1.57479258    -0.39116934
O      -9.82019296     6.83322899    -5.78261900     0.26459683     0.29470042    -0.26125569
O      -3.80682791     2.30678711    -4.04712098    -1.26093094     2.00317181     0.26172995
O      -4.08556075     2.38244102    -7.91503201     0.56963429     0.46899205    -0.15224696
O      -7.74448007     2.27538889    -4.00007902     0.17858513     1.13705342    -0.10644029
O      -7.86193250     2.48764750    -7.99759779     1.19830289    -0.87917712    -0.00573237
O      -3.97252457     6.36656171    -4.01572621     0.35580047     0.37813017     0.45451033
O      -3.88458287     6.41473824    -7.93642638    -0.47700781     0.06579928     0.10695844
O      -8.02861449     6.30155143    -4.01677268     1.01455816    -0.09697959     0.81229658
O      -7.84106666     6.38304975    -7.91553540    -0.15728057    -0.05000218    -0.52701970
O      -3.83297285     4.36927624    -1.99604132    -0.15276565     0.22375225    -0.18764832
O      -3.77532217     4.50746050    -6.04823086    -0.39405482    -0.58354704     0.40956819
O      -7.71310406     4.41981327   -10.05557245    -0.44239544     0.12035129    -0.27050948
O      -7.84080567     4.45534384    -6.03268948     0.25177765    -0.33814746     1.39984223
O      -7.98043230     8.67789137   -10.02112399     1.64801226     0.11169108    -0.27288254
O      -4.06341216     0.18467128    -5.84531163     0.02238852    -0.66513541    -0.62473123
O      -7.62305195     0.10276557    -6.03756890    -0.10058234    -0.72097130    -0.27811968
O      -3.92199585     8.72748856    -5.87784522    -0.10092258     0.48267319    -0.51567258
O      -9.73426480     4.45790595    -8.13387167    -0.13948863    -0.07960950     0.47628056
O      -1.91316727     3.84400912    -0.17536038    -0.15527254    -0.11066448     0.85863527
O      -5.83081983     4.19988738    -4.06126033     0.21346359    -0.37829515    -0.26345884
O      -5.81846149     4.87467867    -8.05948037     0.07993877    -1.49735450     0.47614943
O      -1.91175019     0.37153176    -4.05506976     0.00744843    -1.98456388     0.82354427
O      -5.83638059     8.73805638    -8.06522611    -0.23490638    -0.29089004     0.04687784
O      -5.84762464     0.45706737    -3.92404090    -0.48306531    -0.20598413    -0.80334145
O      -9.62888426     8.33116267    -8.12238704    -0.67229301    -0.62176051     0.32518170
