# total energy = -630.22971942 eV

CRYSTAL
PRIMVEC
        0.00285542     0.02004370    -7.95977623
       -7.82940539     0.00763210    -3.98158109
       -3.91729101     8.74642787     0.01461334
PRIMCOORD
56 1
Li     -3.90138867     2.31338043    -1.95944996     0.03235610     0.09197275    -0.10290023
Li     -4.10684424     2.27284978    -5.95808809     0.96231105    -0.00047006     0.18715971
Li     -7.97821742     2.23247946   -10.15178181     0.68304289    -0.13622577     0.65202769
Li     -7.88497163     2.34533017    -5.96467612     0.27247467    -0.22713548     0.31567276
Li     -3.80869244     6.44445400    -1.99452243    -1.58118153     0.00589045     0.40978593
Li     -3.86246674     6.43092594    -5.95117393     0.02523037     0.09334390     0.37240490
Li     -7.84292208     6.17593822    -9.89996618    -0.09874019     0.86990281     0.40166473
Li     -7.81807529     6.46920970    -5.87859544    -0.48752736    -0.12025611     0.27961588
Ti     -1.92582688     2.21048319    -4.06631348    -1.12635024     0.00057395     0.33545283
Ti     -5.89891546     6.70713490    -7.75258372     1.22485877     1.73391042    -1.09772032
Ti     -7.72423270     4.33333211    -7.75016348    -1.06695254    -0.15494424    -0.30907545
Ti     -7.83964218     4.35163391    -3.71349643     0.48486153    -0.30500041    -0.38261960
Ti     -3.83040362     4.26242216    -7.73691660     1.06075796     0.30495908    -0.18507702
Ti     -3.89687079     4.50784593    -3.78568862     0.03746416    -0.95051267     1.44336335
Ti     -6.04260780     8.66872693    -2.04780198    -0.29506062    -0.28272810    -0.17516369
Ni     -5.82350888     2.35528465    -7.97445504    -0.65867396    -2.16512442     0.03811319
Ni     -5.81943031     2.50388807    -4.05746318    -0.42416052    -0.45422727    -0.77023934
Ni     -9.80255295     6.77417069    -7.91018523    -0.33252168    -0.20931254     0.05159990
Ni     -9.83633788     6.52100845    -4.00502907     0.54269878    -0.31797735     0.64259586
Ni     -1.98841806     1.94152105    -8.07445179     0.20250051     0.70878030     0.75404382
Ni     -5.96019930     6.58331971    -3.95314657     0.33132708    -0.19657342     0.84658315
Ni     -1.99111562     0.03029353    -5.91773182    -0.13476658    -1.33537729    -0.31977141
Mo     -5.92283012     0.09294242   -10.22009186    -0.51978273    -0.36603643     0.81169283
Mo     -9.78034808     8.66522478    -6.22773951    -1.06724995     1.33941880    -2.32311295
O      -1.95110781     1.97584156    -2.03011297     0.08201150    -0.90291672     0.54096260
O      -2.01374226     1.79774624    -6.14600459     0.10501589     0.79952783     0.70374203
O      -5.92882870     6.69671678    -1.97608140     0.15699730     1.02407556    -0.24677618
O      -5.87007471     6.87962380    -5.80339882    -0.47069645     0.31326401    -0.84256101
O      -5.84401001     2.00579981   -10.24507538     0.19843136    -0.34329745     1.10324936
O      -5.90345257     2.00010139    -5.98571899    -0.10458451    -0.92485990     0.66449410
O      -9.70734074     6.85558853    -9.79090490    -0.51448671     0.36203836     0.06571578
O      -9.91596495     6.76826297    -5.96943331     1.91593129    -0.76743139    -0.17493402
O      -3.93051254     2.45192463    -3.94090766    -0.29814865     0.41708257    -0.76796799
O      -3.86830940     2.27220191    -7.85825058    -0.12546140     1.09828291    -1.07195677
O      -7.72513444     2.41913866    -4.02159331    -0.59797310     0.45249800    -0.34008539
O      -7.85471388     2.33354336    -8.02366287     0.20110224     0.80011931     0.08280465
O      -3.99518555     6.43591741    -4.07726114     1.21783247    -0.21342538     0.99666629
O      -4.03629330     6.31413222    -7.80969093     0.48101657    -0.47131790    -0.70758857
O      -7.91965758     6.31352817    -3.85983811     0.43470690     0.31939122    -0.80779176
O      -7.76350850     6.32613065    -7.86300195    -0.55480495    -0.36838544    -0.31680852
O      -3.89514607     4.38804845    -1.95126318    -0.28672905     0.12624206    -1.29826476
O      -4.08835054     4.26709083    -5.99861421     0.63840543     0.32874557     0.50095906
O      -7.74456528     4.30188146    -9.89975547    -0.60072526    -0.13386664    -0.09026324
O      -7.96990637     4.39784062    -6.02518964     0.24266399    -0.19739041     0.30535232
O      -7.88752885     8.73750257    -9.85023777     0.16818994     0.54343751    -0.11606992
O      -7.95399156     8.55347192    -6.16966648     0.13611513     0.53183748     0.69422325
O     -11.60131550     8.59124416    -5.92602657     0.10613817     0.71810401    -0.46058665
O      -7.71340648     0.04899806    -9.96976229     0.34830626    -0.06102209    -0.57619849
O      -2.05240862     4.08180503    -4.10494777     1.42735870     0.80796958    -0.15156722
O      -9.72492825     4.54859963    -4.00028520    -1.47239749     0.50387268     0.27959009
O      -5.87455492     4.64329119    -4.00730474    -0.43567052    -0.77418922    -0.22710308
O      -5.84596188     4.14239343    -7.88086422    -0.04148481     1.77783501    -0.54082560
O      -2.08151605     0.30924564    -3.92144980     0.17287803    -1.41273575    -0.61370857
O      -5.74509489     8.54237696    -8.02375079    -0.36801367    -0.92052742     0.31046955
O      -9.62294950     8.51804091    -4.00738271    -0.54768995    -0.46156896    -0.48916086
O      -5.91144696     0.53365490    -8.12112736     0.16683295    -0.60076298     1.75308194
