# total energy = -630.50524220 eV

CRYSTAL
PRIMVEC
        0.00285542     0.02004370    -7.95977623
       -7.82940539     0.00763210    -3.98158109
       -3.91729101     8.74642787     0.01461334
PRIMCOORD
56 1
Li     -3.89480217     2.05447024    -1.94220355     0.06969664     0.22514238     0.24346784
Li     -3.94196521     2.16055844    -5.86992728     0.05113604     0.06986707    -0.92298345
Li     -7.79876562     2.17432381    -9.97687155    -0.25164383     0.13118768     0.14197895
Li     -7.71937961     2.17581481    -5.91527934    -0.37080922     0.32843324     0.10058562
Li     -3.89713946     6.61713607    -1.97259768    -0.30421051    -0.38114248     0.08898602
Li     -3.88840898     6.64790730    -5.98905393    -0.29600157    -0.36169076     0.61509828
Li     -7.90478484     6.45769301    -9.99669702     0.20850596     0.22948808     0.65080603
Li     -7.88124956     6.64678051    -5.88970562     0.60713765    -0.40247566     0.03373573
Ti     -2.00689748     2.22032020    -4.06309168     1.97481677    -0.11615221     0.02338470
Ti     -5.86861841     6.66216924    -8.09753829    -0.78422737    -1.55927673     1.07320718
Ti     -7.90353717     4.43432187    -7.73803133     0.07253132    -0.23255535     2.53483531
Ti     -7.89764025     4.31158725    -3.69040472     0.21634499    -0.68291283    -1.17787949
Ti     -3.92270839     4.35313047    -7.64780798    -1.39950423    -0.15121054    -0.15078350
Ti     -3.95984732     4.37434650    -3.71254421    -0.68874279     1.29475268    -0.64853854
Ti     -1.92301714     0.05402241    -2.10629142    -1.13380061    -0.38285091     0.10742724
Ni     -5.91637161     2.44577477    -8.05462248     0.28333239     1.19377555     0.53660733
Ni     -5.80479424     2.24058392    -4.04945049    -0.85264643    -0.81581282     1.06708442
Ni     -9.94888041     6.71480021    -7.80354255     0.62211021    -0.77101324    -0.80505250
Ni     -9.75539448     6.30487968    -4.09639323    -1.04724535     0.17280570     0.20012133
Ni     -1.88413446     2.19774335    -7.93211916    -1.28855562     0.00212459    -0.10953128
Ni     -5.97396272     6.46871382    -3.95031558     1.16883963     0.97053773    -0.16416317
Ni     -1.86656717     0.03068711    -5.98721380    -0.80961986    -2.05169924     1.05823033
Mo     -5.90733701     0.05230018   -10.17927291     1.80487749     0.92949082    -1.12609871
Mo     -9.79324655     8.70355996    -6.32325847    -0.23817833     1.19899205     0.70036079
O      -1.86855078     1.93808214    -1.89886321    -0.25446819    -0.25091379    -0.37285983
O      -2.02238881     1.85539192    -6.04039638     0.50852034     0.13644028     0.18936907
O      -5.90965711     6.68211657    -1.97541682    -0.06317320     0.01439460    -0.97519727
O      -5.82919457     6.85408287    -5.74488520    -0.43516039     0.95812839    -1.17775667
O      -5.92432730     2.00104979   -10.04949496     1.14014356     1.07387186    -0.01299695
O      -5.79305856     1.93860825    -5.86960385    -0.77078383     0.41308664    -1.17416098
O      -9.67868578     7.08749109    -9.58753988    -0.78204087    -1.32599696    -0.24815749
O      -9.83101703     6.80481974    -6.00787209    -0.16944483    -0.59110184     0.98280824
O      -3.82623066     2.39329222    -3.98578228    -1.80598141    -0.33315271     0.26819283
O      -3.89508131     2.49699775    -7.98163163    -0.15498360    -0.93746939     0.02153646
O      -7.85228649     2.32088238    -3.93718826     0.30862630     0.64467840    -0.23869611
O      -7.94600762     2.37764753    -7.97219210     1.52661914     0.57903505    -0.08484418
O      -4.03432213     6.40847744    -3.95536858     0.75564037    -0.74385982     0.34466102
O      -3.99211987     6.31868082    -7.93057114     1.00783589     0.61187022    -0.22537791
O      -7.87756766     6.26288824    -3.89937942    -0.08759630     0.11753702    -0.57917991
O      -7.84679557     6.35380458    -7.86724490    -0.13816452    -0.13396467    -0.39602595
O      -3.77011922     4.38624267    -1.99798918    -0.20848475     0.26116843     0.38607233
O      -3.81725125     4.44950838    -5.92432892    -0.18808921    -0.01569606     1.34196530
O      -7.76955763     4.32573767    -9.91467742    -0.41410644     0.19188947     0.85109168
O      -8.00852717     4.40098172    -5.92694024     0.49977235    -0.27546250    -1.58506073
O      -3.84405877     0.03153013    -2.23550429    -0.96659520     0.20852249     1.33956502
O      -8.03647800     8.62835915    -6.10904437     0.68586054     0.16768454     0.31558029
O     -11.66783542     8.61855896    -5.87579572     0.82539198     0.59132647    -0.59884383
O      -7.67393468     0.05772527   -10.07819485    -0.83231251    -0.37333443    -0.03641666
O      -1.99595965     4.16045003    -4.02312909     0.22507382    -0.36522153    -0.32655136
O      -2.06781326     4.46283095    -7.85806553     3.10156730     0.17666863    -0.65625572
O      -5.90443233     4.15943413    -3.96643829     0.13675157     0.00998767    -0.39316665
O      -5.88334990     4.35872332    -7.87957771    -0.88324140     0.04304786    -0.49065002
O      -1.85917212     0.15575122    -3.92705078     0.20828206     1.09784466    -1.41367237
O      -5.94695394     8.41465567    -8.04482020     0.24789777     1.69122326     0.96825563
O      -5.71665439     0.24955409    -4.04084396    -0.69368371    -0.28359969     0.12315560
O      -5.86523860     0.68127025    -8.06859831    -0.20378538    -1.49002488    -0.26693441
