# total energy = -630.61334794 eV

CRYSTAL
PRIMVEC
        0.00279571     0.02951795    -7.98606283
       -7.83802570     0.01298533    -3.99532603
       -3.92160916     8.71933433     0.00634407
PRIMCOORD
56 1
Li     -3.97395007     2.55505894    -1.92068304     0.13051203    -0.72973155    -0.02291963
Li     -4.08197259     1.97727618    -6.06983318     1.29345410     0.21531176     0.50913998
Li     -7.75642578     2.28541563    -9.99025391    -0.01900889     0.16703945    -0.50055596
Li     -7.74446185     1.92316268    -6.09639582    -0.29382997     0.53187609     0.72488429
Li     -3.88700275     6.52858080    -1.85747924     0.14847001    -0.18871061    -0.35122065
Li     -4.01745470     6.57544034    -5.86088923     0.18429964    -0.47073219     0.00031159
Li     -7.96909192     6.45349586    -9.96246768     0.29774170    -0.18968351     0.04849277
Li     -7.85508552     6.50973872    -5.95577949     0.07558963    -0.02298630     0.08115246
Ti     -1.90423936     2.33807232    -4.05776794    -2.02883263     0.05996043    -0.51160014
Ti     -5.92747462     6.75748482    -8.07900787     0.21436417     0.95737105     0.55822167
Ti     -7.70279533     4.27689052    -7.90153783    -0.08773840     2.57037325     0.53411467
Ti     -7.78185601     4.29057492    -3.89405902    -0.18533285     0.41956679     0.66681990
Ti     -3.81873109     4.42793163    -7.63870908    -0.21116250     0.09726261    -0.35627070
Ti     -4.03765508     4.43539440    -3.79045354     0.65498237    -0.34005553     0.52757095
Ti     -2.22290784     0.06694877    -2.20097640    -1.16139283    -1.35212639     1.00568513
Ni     -5.83332941     2.34029626    -8.09787049     0.75434705     0.82766312    -0.34184566
Ni     -5.88867186     2.17737992    -4.07902427     1.00923089     0.00540129     0.11939111
Ni     -9.89602280     6.40114544    -7.89476143     1.44476426     0.26657281     0.23199559
Ni     -9.71747716     6.49432586    -3.85543231    -0.87021937    -0.48905652    -1.08573478
Ni     -1.99609725     2.26177344    -7.85961235     1.26843752    -0.65569427    -0.84919173
Ni     -6.01208839     6.63622127    -3.94564766     1.41480520    -0.04634775    -0.22586589
Ni     -5.88141922     8.71315158    -5.80184844    -0.22016750     1.05521269    -2.43687125
Mo    -10.00292402     8.69528378   -10.17280495     2.79022059     0.11564602    -0.54186421
Mo     -9.77489442     8.69869028    -6.34918609    -0.16401474    -1.86005435    -0.51632878
O      -1.87202107     1.83552696    -1.89175575    -0.15315901     1.37588916    -0.57530802
O      -1.87956291     1.84734105    -5.94416197    -0.43494791     0.46925203     0.08669641
O      -5.86726623     6.76472805    -1.96960582    -0.32611427     0.22099334    -0.55593352
O      -5.83360909     6.96100276    -5.80708644    -0.80125394    -1.44830313     0.20706832
O      -5.82745137     2.00474864   -10.16753923    -0.25852431     0.30412895     0.94205371
O      -5.85821727     1.94373038    -6.03696829    -0.38924184     0.34720116     0.39575310
O      -9.89690135     6.78531812    -9.90447748     0.38887058     0.61134070     0.47576557
O      -9.81197510     6.75877563    -5.99965422     0.42966608     0.17393409     0.19205775
O      -3.80798355     2.30193811    -3.99108318    -0.11293167     1.07214152    -0.13537360
O      -3.86010687     2.45584528    -7.93341667    -0.31265750     0.50231878    -0.01502753
O      -7.77322405     2.38500691    -4.00041831    -1.24623479    -0.71235882    -0.42077926
O      -7.74387849     2.40415360    -8.03201387    -0.96378254    -1.34338305    -0.40668504
O      -3.89396075     6.34111874    -3.91006018    -0.98244965     0.47593677    -0.09524224
O      -3.89791696     6.41320019    -7.90089853    -0.77878372    -0.39251774    -0.00053056
O      -7.85751792     6.30855208    -3.98096928     0.08692204    -0.02238974    -0.04911796
O      -7.79214024     6.35715138    -7.95711233    -0.30728445    -0.72724491    -0.30068196
O      -3.82888747     4.38795771    -2.02608036     0.18564850     0.19350310    -0.21211782
O      -3.86442843     4.50487888    -5.89250241    -0.34969604    -0.23002808    -0.55429095
O      -7.74310504     4.29849921   -10.11537547    -0.14539699     0.41402548     0.89950616
O      -7.65706986     4.24477369    -6.16225681    -0.54174355     0.58091141     0.94504836
O      -7.98145840     8.71170580    -2.12246097     1.04252470    -0.58401236     0.32678473
O      -7.99826409     8.66693220    -5.94220029     0.09785053     0.14024999    -0.29006152
O     -11.53694629     8.67094868    -5.98165165    -0.70762548     0.11733800    -0.14743908
O      -7.79276385     0.12237681   -10.17033635    -1.67345464    -0.50408890     0.49959173
O      -1.95943119     4.27654760    -4.17633528     0.92718241    -1.19837470     0.48555241
O      -9.73886477     4.49727251   -11.91649126    -0.45395643    -0.12144629    -0.56580031
O      -5.85225247     4.13165062    -4.03451956    -0.34019852    -0.23248470    -0.50307389
O      -5.80402712     4.24495657    -8.16683274     0.71560590     0.53108459     0.35918025
O      -1.92237759     0.23911247    -4.03204914     0.53428319     0.44271536     1.54888713
O      -6.07645961     8.55236268    -8.00909369     0.62880730    -0.36735431     0.21458159
O      -5.83555085     0.32401238    -3.98991793    -0.34994394    -0.36800710    -0.29513719
O      -5.89794197     0.57141012    -8.18655264     0.19183399    -1.27225498     0.23247380
