# total energy = -631.17512382 eV

CRYSTAL
PRIMVEC
        0.00279571     0.02951795    -7.98606283
       -7.83802570     0.01298533    -3.99532603
       -3.92160916     8.71933433     0.00634407
PRIMCOORD
56 1
Li     -3.96463196     2.13466049    -1.86015204     0.06977094     0.17494182    -0.02893729
Li     -3.89770060     2.21185439    -5.89582916    -0.07615483     0.27143827    -0.47041599
Li     -7.72947396     2.42220473    -9.93384858    -0.05718942    -0.42831995    -0.11752901
Li     -7.76106428     2.35566406    -5.85342616    -0.68480928    -0.23797907     0.17316952
Li     -3.91870175     6.47802883    -1.84893201     0.01197696    -0.05034932    -0.96348525
Li     -3.89230836     6.47516754    -5.97180577    -0.07046641     0.06808837     0.03900768
Li     -7.86864127     6.43011711    -9.92148352    -0.14670044    -0.11504009    -0.69866128
Li     -7.85057369     6.32056658    -5.83821437    -0.19416453     0.21241203    -0.32026349
Ti     -1.99995452     2.20464040    -4.06825934    -0.54960155     1.12401153     0.74897575
Ti     -6.03254059     6.66665604    -7.92891444     1.10991096     1.05625380     0.38284275
Ti     -7.79892526     4.25880497    -7.71615560    -0.44262352     1.30254735    -0.70890824
Ti     -7.84248750     4.32371834    -3.76520000    -1.07675325     0.06991017     0.35656806
Ti     -3.93324315     4.39484780    -7.81916533     0.71748994    -0.63686134    -1.11141616
Ti     -4.12042276     4.46988174    -3.78595698     0.67388823    -1.58287822     0.36818116
Ti     -1.74854051     0.01314301    -2.14604045    -1.44491456    -0.28137972     0.70085903
Ni     -5.91509265     2.14348291    -7.85353675     1.27651898    -0.26276389    -1.74843988
Ni     -5.87016092     2.21193284    -3.96498600    -0.06710351     0.29840830     0.27041944
Ni     -9.80281660     6.42009561    -8.00567836     0.22721534    -0.73611637    -0.20551836
Ni     -9.92799123     6.56752310    -4.08196528     1.45735535     0.07819499     1.77912254
Ni     -1.99373149     2.10415668    -7.95586928     0.37338594     0.66565023    -0.22220845
Ni     -5.84269021     6.79166377    -4.01958677    -0.91322872    -0.82646543    -0.76930224
Ni     -1.89085615     0.12389028    -5.96864539    -0.00373292    -1.17904420    -0.97128669
Mo     -9.85241021     8.70557156   -10.31668525     0.58956451     0.37353601    -0.17738944
Mo     -5.78520996     0.10671677    -6.28160537     1.54039438    -0.76519406    -0.64391126
O      -2.01328728     1.85292953    -2.06981868    -0.02362604     1.36434696     0.66838646
O      -1.85819706     1.95343551    -5.97992994    -0.36151761    -0.28062651    -0.22987861
O      -5.97125283     6.84693405    -2.19344715     0.05509067    -0.40546090     1.51997181
O      -5.89476569     6.95838948    -5.94478579     0.18820229     0.05327682    -0.24502480
O      -5.86454090     1.98940874    -9.81888917    -0.37733135    -0.62454200     0.42863966
O      -5.91144246     2.00647545    -6.05045731    -0.28307471     0.18947417     1.12836776
O      -9.78711429     6.76242682   -10.11826198    -0.80320551     0.40027001    -0.16335889
O      -9.80819594     6.91764081    -5.85152469    -0.29098075    -0.32200247    -0.33656693
O      -3.87917157     2.45253899    -4.00477945    -0.48315937    -0.31069174    -0.27551856
O      -3.97205554     2.38789602    -7.79113739    -0.65388716     0.10590310    -1.03178674
O      -7.78169069     2.29146447    -3.90956775    -0.24857375     0.47532878    -0.49591636
O      -7.83640968     2.36694172    -7.90712779     0.11551818     0.08692016    -0.06577877
O      -3.84513273     6.29408851    -3.86074350    -0.58801437     1.61367741    -1.06900918
O      -3.99481525     6.40752249    -8.02368233     0.19028406     0.06963377     0.32256609
O      -7.86745117     6.26242996    -4.02580830    -0.20449974     0.38358655     0.38857872
O      -7.89662284     6.37035377    -7.95677165    -0.10220429    -0.56947477     0.14986018
O      -3.84136698     4.34922281    -2.05636568    -0.06181634    -0.02202132     0.89853319
O      -3.81611772     4.50070764    -6.11595581    -0.43737238     0.12672957     2.20962580
O      -7.81554779     4.33125783    -9.99781908     0.19438627     0.45483845     1.13182337
O      -7.90905183     4.30908264    -5.95392420     0.31734544     0.26049875    -0.80781550
O      -4.14748126     0.07152116    -9.98483971    -0.39521815    -0.17357058    -0.27099137
O      -4.01119810     0.14515708    -6.02741086    -0.70165950     0.10019326    -0.34311083
O      -3.93078840     8.70034307    -2.04359864     2.12898528     0.30172489    -0.04712532
O      -7.75604332     0.10653880    -9.97028625     0.73294413    -0.54631635    -0.14432936
O      -1.96285119     4.30562914    -4.15621594     0.80912107    -0.06451359     0.68526461
O      -1.91819378     4.03074269    -7.94654333    -0.85267627    -0.35472873    -0.64273834
O      -5.94780437     4.13602634    -4.00512016     0.76979916    -0.55338038    -0.44948749
O      -5.88076713     4.72363370    -8.02545613    -0.84269838    -0.07638621     0.22164548
O      -2.00285864     0.29033163    -4.06894118     0.01148535    -0.05096509     0.43180667
O      -5.99821603     8.64572682    -8.00692586     0.28640793    -0.23920647    -0.33230607
O      -5.89779350     0.32624311    -4.16722679    -0.22233133     0.17818735     0.87824749
O      -9.81177895     8.24141697    -8.01917817    -0.29719911     0.18327564     0.04421075
