# total energy = -630.70859848 eV

CRYSTAL
PRIMVEC
        0.00279571     0.02951795    -7.98606283
       -7.83802570     0.01298533    -3.99532603
       -3.92160916     8.71933433     0.00634407
PRIMCOORD
56 1
Li     -3.98446032     2.25152327    -1.95143240     0.32445936     0.00547571     0.19227316
Li     -3.83606009     2.37388631    -5.99821111    -0.54263138    -0.33866286     0.32674436
Li     -7.89326302     2.13413387   -10.00426284     0.42396395    -0.04083494     0.11989293
Li     -7.97523550     2.33794937    -5.96459947     0.71929699    -0.00280665     0.49899990
Li     -3.97081753     6.27076039    -2.08703647     0.75293986     0.30087867     0.82934026
Li     -3.94195699     6.41433576    -5.86179614    -0.24244583     0.37027331    -0.15606578
Li     -7.62975053     6.47894296    -9.83328617    -1.02621427    -0.25114316    -0.94572958
Li     -7.88555237     6.57932300    -5.91223834    -0.16872054    -0.04195364     0.12933379
Ti     -1.96991500     2.39440205    -3.97011702     0.34735348     0.63780340     0.19847004
Ti     -5.81873109     6.75086265    -7.95147186    -0.15984390     0.39422705     0.47321209
Ti     -7.72035100     4.47671262    -7.69767407    -0.13094790     0.00844301    -1.19786755
Ti     -7.93673220     4.33734307    -3.79386839     0.14732315     0.20996972     0.83517755
Ti     -3.87838789     4.37104247    -7.68069623    -0.52802528     0.25317614    -0.73767455
Ti     -4.26413555     4.36788795    -3.73144646     0.65122932     0.25976624    -0.76381278
Ti     -5.58807727     8.63608932    -2.35329514    -1.20759894     0.72852556     2.27456696
Ni     -5.90972871     2.34728557    -7.92324592     0.59571984    -0.68044063    -0.40561124
Ni     -5.97203428     2.08486582    -3.91066702     0.00021327    -0.20878607    -0.56035338
Ni     -9.88993966     6.41812569    -8.04677643     1.03597648    -2.00456981     0.87462218
Ni     -9.85522958     6.58221983    -3.99294737     0.18516453     0.46618878    -0.94863666
Ni     -2.03438179     2.16132130    -7.94932891     0.85944334    -0.50984652    -0.81544150
Ni     -5.90649772     6.66281845    -3.99699779    -0.44375729    -0.27015434    -0.16135891
Ni     -1.96318547     0.08396657    -6.04949647     0.41432743    -0.40677118     0.51799769
Mo     -9.73213826     8.61946968   -10.21846104    -1.46945741     1.56591355    -0.49239427
Mo     -5.80382835     0.15475135    -6.39548915     1.68161134    -3.04532289     1.08296901
O      -1.91274317     1.88394816    -1.99632630    -1.10432298    -0.16750419    -1.06673311
O      -2.01691638     1.89591904    -6.01062708     0.42294058     0.70538801     0.08650572
O      -5.79638183     6.73124369    -2.02609543    -0.41438959     0.55745942    -0.56478420
O      -5.96020937     6.96217956    -5.89192730     0.59169824    -0.28133579    -0.77539303
O      -5.83412164     1.87765070    -9.81318981    -0.43608949    -0.28841114    -0.15277939
O      -5.96711865     1.89968774    -5.97513429     0.22562130     2.14233091    -0.01081064
O      -9.91823909     6.72727910   -10.11975313     0.30948866    -0.71405002     0.91348038
O      -9.87508115     6.89613943    -5.83835665     0.25133918     0.12733525    -0.98101120
O      -3.85052915     2.45473114    -3.94645792    -0.48470981    -0.59295536    -0.18740646
O      -4.02480331     2.40671396    -8.04920696     0.08446658     0.86998191     1.36064145
O      -7.90571318     2.24596892    -4.02327015    -0.30306717     0.99310930     0.50565332
O      -7.80558312     2.53847029    -7.94002003    -0.59189276    -0.68433303    -0.19131262
O      -3.96475884     6.31107514    -3.98180090    -0.52810379    -0.27128878     0.12272826
O      -3.93089847     6.37044909    -8.03833008     0.39901009    -0.28030869     0.75762333
O      -7.96380413     6.34270108    -3.95295895     0.98590822    -0.26999855     0.05875511
O      -7.77950280     6.36905749    -7.98552217    -0.52107533     0.64866818     0.10428615
O      -4.08022105     4.35635073    -1.99463658     0.12289234    -0.05852040     0.15270937
O      -3.89148286     4.44245221    -5.89620310     0.16960579    -0.56672165    -0.87958045
O      -7.94327851     4.40965489   -10.00647943     0.41470395    -0.13478239    -0.36882644
O      -7.76138118     4.51062523    -5.98219431    -0.33604713    -0.20790829     1.33136436
O      -7.97211453     8.58735330    -9.81431655     0.20593059     0.38491110    -1.05051278
O      -4.00406577     0.11354529    -6.08897338    -1.30835916     0.12753521    -0.45137687
O      -7.76897767     0.09424328    -6.04133208     1.04313786    -0.20730849    -0.65786366
O      -7.69675370     0.09670149    -9.94835698     0.53575020    -0.40392786    -0.25033130
O      -9.77003411     4.40117676    -7.85785134    -0.53518058    -0.66444949    -0.60213869
O      -1.98674501     4.10728308    -0.11666843    -0.62424335    -0.10343552     0.17477692
O      -6.03210534     3.94620530    -4.17011235     0.10668143     0.05548137     0.77937016
O      -5.82594862     4.67853805    -7.97138075     0.35120144    -0.26229563     0.13359884
O      -1.89336061     0.29891350    -4.10620895    -0.35156283     0.82680472    -0.60241860
O      -5.84378482     8.61151194    -8.04996449    -0.02237892    -0.13855618     0.58432472
O      -5.87094491     0.05278887    -4.09589225     0.18118874     0.79638057     0.61528156
O      -9.77562199     8.16650000    -8.08296661    -0.60707444     1.22994405     0.05093913
