# total energy = -630.76063116 eV

CRYSTAL
PRIMVEC
        0.00279571     0.02951795    -7.98606283
       -7.83802570     0.01298533    -3.99532603
       -3.92160916     8.71933433     0.00634407
PRIMCOORD
56 1
Li     -3.69099248     2.38192284    -1.97026094    -1.02096505     0.02656980    -0.19556257
Li     -3.87278449     2.09555631    -5.98150954    -0.44443069     0.44240519    -0.22502773
Li     -7.78999288     2.37417615    -9.96095982    -0.25745314    -0.18545162    -0.18091442
Li     -7.75911101     2.34437693    -5.83224117    -0.08902466    -0.08220661    -0.57042731
Li     -3.83924435     6.43204146    -1.95096928    -0.71039337    -0.23670226     0.01597466
Li     -3.85692697     6.35409120    -5.88362197    -0.22201823     0.12987786    -0.15845002
Li     -7.81966259     6.62233093   -10.09187785    -0.37519022     0.03882005     0.24059404
Li     -7.85795916     6.69160029    -5.92546942    -0.02961818    -0.18141476     0.28242400
Ti     -1.92154339     2.10155387    -4.09587407    -0.08166031    -0.06154754    -0.22073013
Ti     -5.91574218     6.47747905    -8.00558288     1.78671680    -0.13434576     0.21171916
Ti     -7.90603939     4.32377206    -7.75907891    -0.11964267    -0.65067359    -0.17589657
Ti     -7.89901106     4.33136351    -3.77022112     0.55298547     1.02367638     0.74699553
Ti     -3.82282894     4.35963809    -7.81462679    -0.15537192    -0.71317993     1.03444891
Ti     -4.00117689     4.38928073    -3.82517234    -0.02079152    -0.43186729     0.69621259
Ti     -5.88046712     8.69633648    -1.88151004    -1.26198240     1.08036006    -0.75723537
Ni     -5.77157422     2.31210188    -8.01237426    -1.36203783     0.30721685     0.04475090
Ni     -5.87593225     2.14291535    -3.95780719    -0.03018153     0.24000835     0.13130218
Ni     -9.84316076     6.47034670    -7.82070079    -0.06367377     0.57617168    -0.93796961
Ni     -9.86619274     6.55112451    -3.93349371     0.77490683     0.21427653    -0.00629640
Ni     -1.91191391     2.12352625    -8.11794128    -0.00921972    -0.02763634     1.50057163
Ni     -5.83990551     6.60582533    -4.07358783    -0.84442723    -0.17131660     0.16205509
Ni     -1.98096442     0.06495507    -6.04621184     0.78041296     0.81151125    -0.70178002
Mo     -5.94567968     0.11440335   -10.21027039     0.69314911    -0.17625959    -0.33634147
Mo     -5.95479727     0.04442156    -6.32329107    -0.54497762     0.18253940    -0.48203033
O      -1.90066807     1.91982835    -2.03081348     0.10729687     0.24776307    -0.19736139
O      -1.94716642     1.92753685    -6.18595742    -0.22835889    -0.37100379     0.79931215
O      -5.79493497     6.84863643    -1.99928659    -0.24037954    -1.87517372    -0.39338500
O      -5.79325812     7.01356633    -5.98686195    -0.68070962    -1.48489378     0.17151782
O      -5.91475177     2.09541408    -9.99953486     1.12312668    -1.06079863    -0.69346101
O      -5.84033490     2.07914761    -5.82807138    -0.54979782    -1.03021999    -0.52831033
O      -9.86286902     6.83874751    -9.73149452     0.83627992     1.20297405    -0.31082729
O      -9.89988083     6.84267067    -5.98629405     0.72705853    -0.16321088     0.19514467
O      -3.93283376     2.44087455    -3.99992367     0.04851531    -0.82793661     0.10666304
O      -3.93953419     2.36296102    -8.03821757     1.37233390     1.07879445    -0.00864874
O      -7.83031931     2.41521109    -3.94407994     0.03602453    -0.44786858    -0.67052585
O      -7.78795798     2.34661074    -7.98807397    -0.08462103     0.44705787     0.09397620
O      -3.92353327     6.35869091    -3.94703160     0.60161196    -0.02352719    -0.09583016
O      -3.98741844     6.34716548    -7.88854048     0.31190148    -0.20281761    -0.59094089
O      -7.87247766     6.34231382    -4.03459033     0.32464855     0.11472621     0.26935713
O      -7.72603723     6.24519761    -7.91089086    -2.20299887     1.41450346    -0.30823795
O      -3.90977844     4.39190362    -2.03862988     0.16323595     0.00787902     0.13279882
O      -3.89674441     4.34439890    -6.04730015    -0.29833030     0.10153240     0.03132805
O      -7.97998900     4.25565776    -9.98310061     0.29914211     0.83243987    -0.27636700
O      -8.04568294     4.37585382    -6.02576335     0.19577170    -0.34404414     0.69003345
O      -7.81381967     8.65170857    -2.12196655    -0.50722762     0.41328462     0.32725398
O      -4.23506601     0.09322171    -5.98226623     1.95664183    -0.48888826     0.32064288
O      -7.78486487     0.08964645    -6.02278847     0.37873626     0.14858577    -0.34072406
O      -7.68423424     0.13204299   -10.05540303    -0.20044919    -0.02634599     0.33017783
O      -2.01723578     4.08678734    -4.04964342     0.43083268    -0.00541897    -0.19738385
O      -9.81089842     4.75034437   -11.87348316     0.01048704    -0.27036227    -0.83718721
O      -5.91950706     4.56477185    -4.00542842    -0.26693117     0.30874955    -0.34157197
O      -5.93193791     4.41959945    -8.00822895     0.80714209    -0.02150111    -0.05757847
O      -1.92391194     0.20914590    -4.17140096    -0.14896263     0.17480989     0.61085891
O      -5.76991025     8.43702718    -8.06576118    -0.73783445     0.32118997     1.57559781
O      -9.90470320     8.47132580    -4.02033983     0.34864196    -0.31887867     0.10997300
O      -5.71030555     0.48226022    -8.10784237    -0.65349714     0.19761425     0.01228024
