# total energy = -631.38913395 eV

CRYSTAL
PRIMVEC
        0.00285542     0.02004370    -7.95977623
       -7.82940539     0.00763210    -3.98158109
       -3.91729101     8.74642787     0.01461334
PRIMCOORD
56 1
Li     -3.85396975     2.28623689    -1.90363864    -0.05679158     0.00601685    -0.27535927
Li     -4.00186419     2.22704344    -5.88725910    -0.02511078     0.05391938    -0.54314300
Li     -7.67935618     2.20004227    -9.96052659    -0.02884523    -0.04493659     0.54712662
Li     -7.74148234     2.29979752    -5.85407372    -0.39684735     0.10498814    -0.12090727
Li     -3.99565812     6.61259338    -2.00764849     0.24343161    -0.16277920     0.39668568
Li     -3.95774339     6.66164137    -5.87295381     0.40555067    -0.06730408     0.03937586
Li     -7.81809981     6.54283091    -9.94804922    -0.37055610     0.10670164     0.15560550
Li     -7.76055785     6.62054557    -5.88773242    -0.75547437    -0.46034347     0.10491174
Ti     -1.98033498     2.17388231    -4.17518475     0.40547627    -0.51948211     0.60100993
Ti     -5.92047132     6.51914647    -7.91738861     0.15740751     0.42175992    -0.53798209
Ti     -7.99524256     4.36345062    -7.75501475     1.27238486     0.93020694     0.99160312
Ti     -7.85053652     4.31141827    -3.66176592     0.74349262     0.95098702    -0.89951989
Ti     -3.78188612     4.38951221    -7.65862287    -0.19521409     0.06480754     0.09732846
Ti     -3.99888361     4.33827826    -3.71538743     0.20762357     0.87649416    -0.14036907
Ti     -2.05369957     0.04615413    -2.12944430    -0.44393530    -0.20343924     0.16169466
Ni     -5.77031070     2.46148700    -7.89689931    -1.17230327    -0.77935866    -0.74258136
Ni     -5.82285701     2.37807095    -4.03320457    -0.38659076    -0.75985032     0.65602126
Ni     -9.87284519     6.72635763    -7.81348972     0.59355958    -0.57141631    -0.80552077
Ni     -9.75193758     6.46907083    -3.98493652     0.15778470     0.64388883    -0.35947881
Ni     -1.92904006     2.10081037    -7.96200689    -0.02896787    -0.28724074     0.26962677
Ni     -5.88682970     6.45112700    -4.01581655     0.12443736     0.13872396     0.35776662
Ni     -6.03906666     8.70854156    -5.99387155     0.83444532    -0.80778944    -0.37752770
Mo     -5.89930061     0.09881753   -10.28008384     0.17088772    -0.63867042    -0.13378613
Mo     -9.83392015     8.68971344    -6.28295588    -1.01977859    -0.27934462     0.12366283
O      -1.92230346     1.95025895    -1.89238653     0.26707942    -0.54598345    -0.51647739
O      -2.06035372     1.78849144    -6.03339277     0.05004564     0.67530398    -0.44204605
O      -5.92169567     6.89733808    -2.04992746     0.45479112    -0.94244684     0.39001651
O      -5.90615930     6.86271910    -6.03097607     0.33690155     0.10930389     1.23672567
O      -5.74657495     2.01570590   -10.05682240    -0.34766238    -0.35950100    -0.10789479
O      -5.87816842     2.04526689    -5.91327914     0.22353917    -0.64735988     0.23314747
O      -9.78844937     6.96425117    -9.64131635    -0.17641296     0.36109450    -0.96371830
O      -9.85592896     6.73428092    -6.00119128    -0.01386658     0.30551968     0.57770116
O      -3.91871612     2.28370685    -3.93604366     0.56906878     0.67654704    -0.48446162
O      -3.91206355     2.44041273    -8.04897773     0.81520220     0.63827353     1.43510604
O      -7.74844288     2.40492946    -3.81545516    -0.52846343    -0.36658305    -1.29618268
O      -7.79322047     2.47627289    -7.99220989    -0.19206464    -0.91329159    -0.15431860
O      -3.86889015     6.33458992    -3.91647537    -0.77341460    -0.31077992    -0.23348477
O      -3.90275707     6.32566570    -7.94416167    -0.15564483     0.05623115     0.21114770
O      -7.80146827     6.31289941    -3.99039839    -0.13000778    -0.00860051     0.20919611
O      -7.90813945     6.35156068    -7.83642694     0.32158182     0.21414863    -0.75481451
O      -3.84799163     4.31152964    -1.96824152    -0.04033929     0.07135275    -0.46092422
O      -3.88300570     4.32553746    -5.89086111     0.24286978    -0.20252621    -0.83085096
O      -7.59764051     4.41968588    -9.89056689    -0.44854253     0.19600919     0.74015900
O      -7.82115598     4.34390080    -5.99532675    -0.08205835    -0.19329070    -0.35374059
O      -7.90413401     8.70486051    -9.96728512     1.13922734     0.74008808    -0.28928916
O      -8.10182132     8.61351271    -5.96895169     1.77214031     0.52308862     0.43159834
O     -11.64937535     8.71203867    -5.90429952    -0.66411567     0.30507476    -0.44469556
O      -7.65366590     0.12648795   -10.03460937    -0.11587267    -0.02370398     0.27376988
O      -1.97895422     4.06748052    -4.16650096    -0.91948552    -0.04132134     0.36294083
O      -9.65764157     4.58531772    -3.98518188    -2.13841847     0.10414842     0.31532509
O      -5.89369661     4.44956851    -4.09668190     0.65680114     0.01981022     0.33341141
O      -5.81999598     4.53916672    -7.93609981     0.16863798    -0.58470745     0.16584651
O      -1.86465028     0.17882824    -4.07869168    -0.43011607     0.28709493     0.86300303
O      -5.94650753     8.47429627    -7.89656368    -0.03577893    -0.27488162    -0.46199566
O      -9.81825563     8.42529429    -4.08717835     0.23862165    -0.35374791     1.27427468
O      -5.78692028     0.51540676    -8.00939601    -0.41827758     1.36385858    -0.84465033
