# total energy = -630.44482187 eV

CRYSTAL
PRIMVEC
        0.00279571     0.02951795    -7.98606283
       -7.83802570     0.01298533    -3.99532603
       -3.92160916     8.71933433     0.00634407
PRIMCOORD
56 1
Li     -4.02007600     1.98971961    -1.81780328     0.57906625     0.12332162     0.00082295
Li     -4.06632132     2.30213929    -5.85860614    -0.32087826    -0.09347582    -0.61435142
Li     -7.79875351     2.22106368   -10.02331778     0.24835639    -0.07013528     0.11248416
Li     -8.06621894     2.53435952    -5.85292753     0.80616870    -0.66763904    -0.21103518
Li     -3.82814463     6.51290278    -1.82408993    -0.05368077    -0.01210697    -0.43216736
Li     -3.90686138     6.34590266    -6.03734301     0.11798982     0.01866274     1.02824338
Li     -7.76925274     6.65293744    -9.86417342     0.14281141    -0.23715591    -0.23169577
Li     -7.97223070     6.10563552    -5.90061582     0.15850393     1.20148418    -0.19901799
Ti     -2.01590203     2.48009138    -4.22349710     1.31708208    -1.09996408     0.15113851
Ti     -5.79022106     6.91971822    -7.82301650    -0.00565381    -2.64071759    -0.60376816
Ti     -7.68041799     4.45669847    -7.87729719     0.75527813    -1.52000355    -0.04409022
Ti     -7.97620226     4.45155201    -3.74460851     0.45369009    -1.31454925     1.98235629
Ti     -4.05401375     4.24473013    -7.72543363     0.39167703    -0.63793957    -1.68826105
Ti     -4.11315594     4.37015294    -3.62384602     0.82419792     0.49296743    -0.91170773
Ti     -1.85143559     0.03139195    -2.31584215     0.73891778     0.29783463    -0.50634181
Ni     -6.02344550     1.98080277    -8.00738293     0.80954271     0.68321561     1.89887233
Ni     -5.90357980     2.28927624    -3.92382596     0.26720669    -0.62767823    -0.54835584
Ni     -9.74843698     6.33421455    -7.98333278    -0.36335529     0.59495984    -0.21363078
Ni     -9.81761603     6.55491295    -3.84854746     0.89449816     0.26903946    -2.15193703
Ni     -1.95854146     2.10998273    -7.99833283    -0.42433043     0.52853049     1.12276674
Ni     -5.76536335     6.58176753    -4.03457385    -0.36663110     0.15401425     0.57775161
Ni     -1.94115455     0.17960510    -5.98868295    -0.26845301    -2.43135659     0.73280012
Mo     -9.83489356     8.57174455   -10.34463784     1.19144824     1.52637572    -0.19783776
Mo     -5.79846626     0.07402951    -6.34741396    -1.02354228     1.19181283     1.20637804
O      -1.99945007     1.87284123    -1.79806278    -0.48444286     0.46539663    -1.16782837
O      -2.02243075     1.96068328    -6.08636938     0.24843165     1.11303638     0.12285915
O      -5.80693287     6.83376673    -1.92737557    -0.15253521     0.45999908    -0.45067815
O      -5.83031296     6.97458425    -5.87281541     0.09677390     0.38111952    -0.48082095
O      -5.84205802     1.84736896    -9.77126367    -0.48709709     0.05169917    -1.91791590
O      -6.07635893     2.02120689    -6.10553869     0.23645566    -0.56575625    -0.09532661
O      -9.78618184     6.65979287   -10.01233954     0.18084026     0.26240323     0.21369544
O      -9.72726310     6.95735575    -5.79845133    -0.87247857    -1.07914104     0.66258015
O      -3.89864890     2.40983242    -3.95185067    -0.31735728     0.35673475    -0.05113978
O      -4.13906494     2.28370435    -7.79726976    -0.02960117     0.75921280    -0.93780453
O      -7.75554611     2.48652556    -3.89303022    -0.15312537    -0.24277541    -0.43453150
O      -7.87079017     2.35489017    -8.14043316    -1.13499833     0.92645122     0.70200433
O      -3.81205674     6.24295634    -4.00971915    -0.67958632     0.18580997     0.43089037
O      -3.84866109     6.46309281    -7.91777480    -0.50804857    -0.25960962     0.19569428
O      -7.72912434     6.27987320    -4.06964029    -0.24531753     0.69047374     0.75020754
O      -7.79319094     6.31248104    -7.92145823    -0.60384328     1.96538260     0.10322017
O      -3.94574233     4.31502431    -1.90729692     0.23379151     0.32139157     1.32435706
O      -3.99795570     4.42695570    -6.02724789     0.45952668    -0.22331500     1.63859444
O      -7.88128660     4.50375701    -9.87757382    -0.21731018    -0.14492690    -2.01459163
O      -8.05969054     4.36054496    -6.12318365    -0.10691443    -0.52623584     0.70773341
O      -4.01682428     0.04270358    -2.08894327    -0.71992400    -1.20541121     0.03990234
O      -4.09731573     0.25018557    -6.08132898     0.60839867     0.00432740    -0.02321085
O      -7.83616845     0.18269853    -6.13438918    -0.40875150    -1.15974250    -0.08080569
O      -7.62621342     0.07396534    -9.92476102    -0.26006353    -0.33512542    -0.50162773
O      -2.01113732     4.34240996    -4.10901274    -0.16159476    -0.15472161     0.14475861
O      -2.00239110     3.99941914    -7.90331458     0.10829267     0.14479133    -0.41169836
O      -5.88029748     4.17385086    -4.02350001    -1.98784108    -0.06146703     0.08312730
O      -5.86557385     4.76113070    -7.85843254     0.32501414     0.30262749    -0.42801985
O      -2.07148252     0.38278087    -4.14477483     0.25454939     0.39201134     0.78328731
O      -5.90358068     8.68623227    -7.91699181     0.23245492     1.94597014     0.18109706
O      -5.91033583     0.34789280    -4.16078122    -0.31899132     0.59480627     1.30245271
O      -9.78888719     8.21345374    -8.05664985     0.19939893    -0.67111599    -0.65197810
