# total energy = -630.58934401 eV

CRYSTAL
PRIMVEC
        0.00279571     0.02951795    -7.98606283
       -7.83802570     0.01298533    -3.99532603
       -3.92160916     8.71933433     0.00634407
PRIMCOORD
56 1
Li     -3.98007515     2.24532988    -1.87674646    -0.08928554     0.02114424    -0.22356397
Li     -3.90340510     2.10183467    -6.08768532     0.04728031     0.40642794     0.81508912
Li     -7.83299973     2.50305684   -10.09158026    -0.10407517    -0.42717475     0.89743823
Li     -7.88318412     2.11801130    -5.91171638     0.61471284     0.15370925     0.08803360
Li     -3.95107059     6.79138358    -1.77740911     0.79916014     0.03502702    -1.22113396
Li     -3.88058663     6.31555879    -5.86948497     0.09002440     0.29650559     0.07169106
Li     -7.84000726     6.69991435    -9.96567256     0.21919122    -0.27943715    -0.36610714
Li     -7.97270353     6.67086532    -5.90422653     0.94230115    -0.29365895     0.39478437
Ti     -1.95087400     2.14582368    -3.99964179    -0.46352591    -1.04874288    -0.50999530
Ti     -5.83940830     6.54383092    -7.91135530     0.66756483     1.82216138    -0.07847024
Ti     -7.82591048     4.43513324    -7.74155842    -0.49078875    -0.40322471     0.50242078
Ti     -7.94256413     4.39519048    -3.77096030     0.43277311     0.70945440    -1.56129210
Ti     -3.87091338     4.42374804    -7.78598795     1.09499333     0.48663202    -0.01968373
Ti     -4.00434993     4.41232026    -3.71644160    -0.05694371     0.27563708    -1.63652610
Ti     -2.18460660     0.05514496    -1.98222718    -0.67985865    -0.71449966     0.00676460
Ni     -5.81445427     2.20285977    -7.97019072    -0.92277133     0.31732047     1.06466452
Ni     -5.96657514     2.22816965    -4.00318266     0.73443792    -0.75539197    -0.38139684
Ni     -9.70816299     6.46519983    -8.02412092    -0.69037600    -0.79771071    -0.11122676
Ni     -9.80996325     6.70684289    -4.02332765     1.01860555    -0.45710261     0.19746860
Ni     -1.94100882     2.07302727    -7.91925608    -0.28058538     0.62344013    -0.33165368
Ni     -5.84830356     6.54767004    -4.00923883    -0.30650726     0.46908696     0.47549601
Ni     -5.82746153     8.69441692    -5.96245735    -0.66354735     1.60301262     0.03265549
Mo     -9.96909262     8.67914528   -10.25310625     0.23763806    -0.03650958    -0.54690542
Mo     -5.82160220     0.07097964    -6.40450535    -2.01154015     0.60309613     0.73986655
O      -1.89183419     1.89599658    -1.96639765    -0.45994282     1.34564445    -0.34492668
O      -1.91668171     1.91378763    -5.99483959     0.22043752    -0.75609703     0.25457546
O      -5.75574071     6.90110631    -2.12483550    -0.67980929    -0.39776432     0.80899193
O      -5.94853353     6.86700058    -5.91284855     0.41354632    -0.19789760    -0.64388908
O      -6.03949346     1.84420087    -9.81397804     0.97817390     0.10473676    -0.12317735
O      -5.88273613     1.97756495    -6.04831407     0.28748637     0.22697856     0.00535390
O      -9.72195199     6.69376183   -10.07515890    -1.17323408     1.32148253     0.25303737
O      -9.77878847     6.76742326    -5.96211061    -0.14982050     0.96592204     0.34237999
O      -3.82621537     2.32986510    -3.97077179     0.13011755     1.00646107     0.01753109
O      -4.00272042     2.54532088    -7.88719094     0.15012910    -2.20174942    -1.22320875
O      -7.87878490     2.34178716    -3.95962693     0.35555691     0.56013885    -0.30424644
O      -7.72490899     2.48195786    -7.95075325    -0.97604947     0.41751224    -0.10513582
O      -3.86616267     6.35025300    -3.87123089    -0.48522743    -0.34580541    -0.81440563
O      -3.82709112     6.50544232    -7.95503837    -1.31867421    -0.85611537     0.20664620
O      -7.85639530     6.42389948    -3.81851910     0.49250931    -0.80689894    -1.67291260
O      -7.67701947     6.43132794    -8.12901500    -1.67991018    -0.27231213     1.03314301
O      -4.09119310     4.28715737    -2.02385497     0.06815101    -0.29705277     2.12159177
O      -3.94111877     4.42491907    -6.04866189    -0.18734828     0.18135423     0.89848391
O      -7.92697826     4.41728209   -10.04240962     0.39558552    -0.22645987     1.74101518
O      -7.85500686     4.44669260    -5.99004441     0.18995986     0.39201169    -0.55227739
O      -4.06548230     0.07157913    -2.12770719     0.85434120    -0.26612667     0.71845149
O      -4.06205843     0.14532573    -6.09825273     1.31872915    -0.72180750     0.42334315
O      -7.60493203     0.09270598    -5.96251355     0.02118913    -0.22932462    -0.55509392
O      -3.90356447     8.66742565    -6.18493008     0.21639733    -0.56816170     0.68732870
O      -9.81512781     4.53174519    -7.96430499     0.68980290    -0.76249986    -0.16396613
O      -2.00552747     4.18605987    -8.04129528     0.74464552    -0.33250804    -0.19448707
O      -5.89886631     4.05006575    -4.08698828    -0.70527275     0.59317317     0.17340004
O      -5.84872212     4.71543459    -8.01801619    -0.17490619    -0.35028750    -0.02515931
O      -1.96816511     0.26454526    -3.96538559     0.50922499     0.61968375    -0.20102267
O      -5.89603206     8.70459831    -8.06430602    -0.13660132    -0.68843068     0.08559812
O      -5.87067696     0.19818344    -4.06079937     0.06035343     0.31681990     0.10520607
O      -9.73327021     8.30890931    -8.14117537    -0.29595380    -0.79425498    -1.05394570
