# total energy = -630.99993280 eV

CRYSTAL
PRIMVEC
        0.00285542     0.02004370    -7.95977623
       -7.82940539     0.00763210    -3.98158109
       -3.91729101     8.74642787     0.01461334
PRIMCOORD
56 1
Li     -3.83985803     2.42556917    -1.86949360    -0.31461409    -0.25236541    -0.37209836
Li     -4.00221254     2.10306964    -5.79141784     0.40896492     0.26067456    -0.72327037
Li     -7.72758947     2.34337580    -9.85685641    -0.34142706     0.10831900    -0.54063012
Li     -7.71185729     1.93092006    -5.98058097    -0.23651059     0.69836007     0.35794980
Li     -3.87995651     6.47163867    -1.90510106    -0.36007268     0.17957158    -0.44515113
Li     -3.91328652     6.57057086    -5.94884776     0.21933820    -0.40470099     0.66957529
Li     -7.87017744     6.36186032    -9.81461059     0.10301920     0.01832172    -0.61450036
Li     -7.68242753     6.67582530    -5.77937987    -0.72596261    -0.30074591    -0.59140604
Ti     -1.94781986     2.16415426    -4.06818493    -0.28831080     0.49147238     0.48891166
Ti     -5.75251829     6.87154049    -7.87127288    -2.52766427     0.22350498    -1.03064804
Ti     -7.79523849     4.29226716    -7.69322509     0.50019710     1.53791693     0.62011786
Ti     -7.84877703     4.32911246    -3.76575250     0.53107843     0.18469872     0.23930652
Ti     -3.88662127     4.42243210    -7.74769184    -0.02241637    -1.10801900     0.70162581
Ti     -3.94563316     4.50855754    -3.68498440    -0.35783941    -1.88955322    -0.40465723
Ti     -2.21414107     0.05335963    -2.09426525    -1.49202119    -0.61227644    -0.74866826
Ni     -5.84160452     2.38634582    -7.92536094     0.98839641     0.25299115     0.05393886
Ni     -5.89428795     2.07375723    -4.00670304     0.18217580     0.27067987     0.38043034
Ni     -9.78229018     6.49242533    -7.83881719     1.39970134     0.40946520    -0.86804779
Ni     -9.83446243     6.44200383    -3.96831556     1.02270640     1.48145258    -0.27273302
Ni     -1.90479616     2.16190437    -7.95940470    -0.82318336    -0.23007018     0.30748670
Ni     -5.91257074     6.62145208    -3.98905231     0.12102570     0.63173974     0.67717101
Ni     -2.03739967     0.02665821    -6.00379204     0.34640228    -0.47243913     0.24909535
Mo     -6.05873142     0.07682806   -10.26676960     2.15655628     0.24701089     0.69536288
Mo     -9.76847471     8.57409339    -6.31999339     0.37253113     1.56652328    -0.58198608
O      -1.85606158     1.87610859    -2.02917244    -0.07097482     1.49559020     0.33437625
O      -2.05340739     1.87967210    -6.03092265     0.31245410    -0.44667720     0.20224513
O      -5.88338668     6.94516908    -2.00133537     0.16949721    -1.42529892     0.30356594
O      -5.83705591     6.79765031    -5.93472734     0.12403331     1.31478185    -0.35595303
O      -5.86011037     1.94172329    -9.97863394    -0.27867419     0.88853367    -0.87539058
O      -5.79009368     1.96264283    -5.85755105    -0.55971233    -0.80197164    -0.32674023
O      -9.75709118     6.99173999    -9.80033579    -0.37425052    -0.41887315     0.59197657
O      -9.70269671     6.69582317    -5.98284282    -0.53074117    -0.21976672     0.11129668
O      -3.87267256     2.43848288    -3.90803354    -0.59043808     0.28399285    -0.17647571
O      -3.83177790     2.53378726    -7.93791695    -0.06579460    -0.55700465     0.04799444
O      -7.92241418     2.32298698    -3.90088931     1.41594195     0.50667332    -0.10663445
O      -7.79603369     2.35167086    -7.95212020    -0.11041659    -0.53565436    -0.38783597
O      -3.78173819     6.36944503    -3.88756883    -0.05311400     0.93197258    -0.25688479
O      -3.98356300     6.42772911    -8.00826082     0.99013634     0.47067983     0.66726399
O      -7.94140644     6.36035122    -3.98627919     0.46223407    -0.56395344     0.64940050
O      -7.77078115     6.30564521    -7.97474904    -0.02388207    -0.22936149     1.05240166
O      -3.95844861     4.46998088    -1.90791024     0.47048123    -0.00780171    -0.99977496
O      -3.98316960     4.56189497    -6.01066678     0.29384730     0.19429422     0.71729819
O      -7.88356179     4.29660283    -9.93815789     0.39203674    -0.02600370    -0.71556477
O      -7.73006275     4.09984708    -5.94706494    -0.27674243     0.53561362    -0.08425811
O      -4.04468114     0.14038119    -2.20356703     0.49239018    -0.33512669     0.84379060
O      -7.92267546     8.60604084    -6.00846308     0.26692822     0.39348378     0.11390865
O     -11.53635238     8.74294897    -5.98107720     0.50971460    -0.53565490    -0.67788423
O      -7.79825100     0.06305996    -9.98365536    -0.85642099    -0.10614208     0.05470116
O      -1.92460386     4.08572645    -4.07519138    -0.29700583     0.32926893     0.38487707
O      -9.75806421     4.64335777    -3.97799532    -0.27929581    -1.01374241    -0.29974144
O      -5.83292969     4.75144188    -3.98095970    -0.78938492    -0.40386364     0.08210956
O      -5.85196475     4.30313002    -8.04569110    -0.43215060    -0.24980171     0.13982560
O      -2.01162166     0.16056245    -3.98659624     0.37664685    -0.13486366    -0.30107669
O      -5.77055268     8.71236808    -8.06494569    -0.39530034    -1.05182437     0.66731393
O      -9.84238063     8.64035251    -4.08482796    -0.14703739    -0.44195067     0.09870469
O      -5.65002111     0.57905714    -8.03235723    -0.94529917    -0.89157222     0.24471595
