# total energy = -631.05587765 eV

CRYSTAL
PRIMVEC
        0.00279571     0.02951795    -7.98606283
       -7.83802570     0.01298533    -3.99532603
       -3.92160916     8.71933433     0.00634407
PRIMCOORD
56 1
Li     -4.01051439     2.17575487    -1.98937067     0.16770622     0.29569732     0.36940861
Li     -4.17904191     1.99384596    -6.07575689     1.42034072     0.41895218     0.14190390
Li     -7.88347803     2.32027262   -10.04137972     0.07296960     0.10961631     0.08725662
Li     -7.80670791     2.19828923    -6.02521714    -0.44711957     0.09016916     0.29933960
Li     -3.95015879     6.35276579    -1.87689688     0.02078968    -0.00421235    -0.52830231
Li     -3.79366216     6.27815048    -5.85689303    -0.19271558     0.36471995     0.01929575
Li     -7.88827985     6.38963675    -9.98601455     0.33264449    -0.01661134     0.31333738
Li     -7.84627437     6.41273619    -5.83839140    -0.14003558     0.16980009    -0.13485766
Ti     -2.07003436     2.16577389    -4.12258486     0.97527562     1.40500520    -0.44014483
Ti     -5.81530731     6.70651062    -7.88176330    -0.79586514    -0.86090770     0.17549787
Ti     -7.78083861     4.36270937    -7.69315143    -0.96205076    -0.65310910    -0.78661749
Ti     -7.71989423     4.41424121    -3.72662784    -1.33077618    -0.52894248     0.04337238
Ti     -3.79073426     4.31371703    -7.66263422     0.84244373     0.14200014    -1.10914086
Ti     -3.95094981     4.32987199    -3.75284889     0.02127040     0.61456203     0.52993305
Ti     -6.13443233     8.69738180    -2.13141725     1.02921440    -0.50107508    -0.92229451
Ni     -5.86721788     2.47047101    -8.02540166    -0.80147632    -0.96663075    -0.53259601
Ni     -5.92177729     2.12026432    -4.04320177    -0.69351040     0.56710788    -0.27159728
Ni     -9.67230269     6.55341055    -7.84935428    -2.17300787     0.03441608     0.64709819
Ni     -9.88224825     6.67558631    -3.97108466     0.85621474    -0.27951288    -0.37114555
Ni     -1.93837104     2.06430758    -8.05620203     0.01522391     0.42947801     0.39032355
Ni     -5.73704549     6.48996801    -4.01151058    -1.10217974     0.33831724     0.58786743
Ni     -1.96981878     0.04716903    -6.02864576    -0.08638434    -0.25886892    -0.21465249
Mo     -9.92117493     8.75277167   -10.16081608    -1.57292721    -0.49321784    -0.56549216
Mo     -9.87682814     8.72215916    -6.35759819    -0.23122449    -1.27325477    -0.35302009
O      -1.90597063     1.89851860    -1.96472909    -0.72968179    -0.37101268    -0.51436222
O      -1.99816003     1.89076384    -6.16545844     0.05149870    -0.07727212     0.50046045
O      -5.90894079     6.72051554    -2.11689696     0.33948138     0.52367465     0.33306463
O      -5.83679661     6.86773218    -5.86994108    -0.06800700     0.32582879    -1.19546858
O      -5.96967546     1.96124557   -10.16196098     1.17898434     0.74500500     0.40609989
O      -5.93427198     1.94352040    -5.87267139    -0.64399404     0.23718253    -0.49947419
O      -9.76562916     6.90963675    -9.67214041     0.05125958     0.41846536    -0.53695759
O      -9.89303617     6.78198209    -5.95748885     1.12577392     0.71361439    -0.37503422
O      -3.98476017     2.33868155    -4.12404204     0.23862542    -0.05087475     0.89830660
O      -3.90785562     2.43120740    -7.94802099    -0.07988043     0.21938476    -0.40108046
O      -7.90916350     2.46274071    -3.99151367     0.11081656    -0.60146596    -0.10788537
O      -7.84243732     2.43204708    -8.09137634    -0.03667336     0.21542337     0.48893968
O      -3.83575170     6.30516404    -3.98684320     0.22379431    -0.26566593     0.48774676
O      -3.99666763     6.40612458    -7.91331773     0.75104328    -0.44761985     0.21226224
O      -7.67965319     6.32181731    -3.98946583    -0.34053946     0.62848413     0.19706487
O      -7.83099245     6.32041413    -7.89642101     0.77084087     0.23615712     0.12845640
O      -3.94291645     4.33888825    -1.98666071    -0.31184001    -0.11360207    -0.03778438
O      -3.76780224     4.38607806    -5.91888650    -0.36125097     0.15086675    -0.39708777
O      -7.66654463     4.35968467    -9.93138368    -1.07961973     0.34656785    -0.59409019
O      -8.02125145     4.21992718    -5.98102655     0.50069620     0.57268660     0.29749781
O      -4.00233378     0.06441566    -9.87281818    -0.32179763     0.26554637    -0.50483941
O      -4.11878531     0.11216438    -6.19373402     0.42292284    -0.97413046     0.14913456
O     -11.68439334     8.70554951    -6.07006962     0.53869215     0.11095519    -0.12061021
O      -7.80940125     0.12262695   -10.22749952     0.94119356    -0.72163371     0.40034728
O      -2.06697290     4.11193388    -3.96376790     1.35960307    -0.39043096    -0.38051920
O      -9.78198853     4.82555061    -4.10595189    -0.38237302    -0.12309116     0.98618277
O      -5.89098879     4.30295856    -4.09983526     0.80270240    -0.33423250    -0.30912679
O      -5.87080751     4.35263372    -7.90906561     0.97182529     0.52812750     0.32241150
O      -2.00325425     0.32983342    -4.11632173    -0.20037454    -1.26760235     1.22473906
O      -5.77357115     8.44081225    -8.23341511    -0.37228535     0.94453447     1.19261876
O      -9.63435004     8.70303517    -4.04097924    -0.63409509    -0.45742334     0.74770339
O      -5.97319301     0.57998713    -8.13564981    -0.00457599     0.79467035    -0.37677552
