# total energy = -630.89418782 eV

CRYSTAL
PRIMVEC
        0.00279571     0.02951795    -7.98606283
       -7.83802570     0.01298533    -3.99532603
       -3.92160916     8.71933433     0.00634407
PRIMCOORD
56 1
Li     -3.99550768     2.28781842    -1.92719322     0.37884405     0.26209455    -0.00502307
Li     -4.07896229     2.22966509    -5.97099385     0.28247474    -0.04112007    -0.39493854
Li     -7.94263231     2.44160491   -10.00386019     0.28114579    -0.23702793     0.18253751
Li     -8.02344046     2.36680775    -5.93939934     0.84101810    -0.19276893     0.28649155
Li     -3.92693801     6.38831908    -1.92127573    -0.08374804     0.12087704    -0.22152240
Li     -3.94709204     6.39616400    -5.93412138     0.41038750     0.04458953     0.09210049
Li     -7.84070800     6.39758895    -9.96374967     0.02690681     0.33356088    -0.05377549
Li     -7.81891185     6.48198344    -5.69366664     0.12227743     0.22224205    -1.11350935
Ti     -2.00811307     2.25217157    -4.06311271    -0.14829299     0.44034711    -0.48578374
Ti     -5.87643130     6.80816140    -7.93411633     0.27959190     0.67895829    -0.44086076
Ti     -7.65510961     4.38879328    -7.70782957    -1.24628605    -0.48469478     0.24896635
Ti     -7.85426656     4.35582050    -3.73087721     0.25495437     0.27533651    -0.71189660
Ti     -3.84021855     4.43960837    -7.82872402     0.42796276    -0.90185067     1.08710129
Ti     -4.01694067     4.41179591    -3.78082287     0.58642821    -0.52444061     0.75812654
Ti     -2.17458368     0.04016648    -1.99457171    -0.11231449     0.09286993    -1.51988650
Ni     -5.86183912     2.34800516    -7.96243600    -0.01134975    -0.27869631    -0.89400904
Ni     -5.86619271     2.17346607    -4.01492387    -0.58037314    -0.31565585    -1.17200097
Ni     -9.66988146     6.37113513    -7.83507899    -1.28839317     0.14005179    -0.76228754
Ni     -9.72787117     6.56006838    -4.05803818     0.06181178     0.56720803     0.74443315
Ni     -1.99488220     2.15399886    -7.97345345    -0.48789725     0.11874722     0.21150304
Ni     -5.74751858     6.55584528    -4.04692390    -1.21193039     0.61629655     0.81771328
Ni     -5.97961463     8.69010523    -5.97248578    -0.17050209     1.98007812     0.54736206
Mo     -6.02050949     0.04805185   -10.22763968     1.18963019    -0.63563208    -0.09962278
Mo     -9.88916436     8.54890473    -6.39580177     1.23190417     1.07927273     0.27944529
O      -2.06168999     1.94606244    -1.94422340     0.68496431     0.74711892     0.12484375
O      -2.10028360     1.86139096    -6.02769473     0.95835793    -0.30878633    -0.00419629
O      -5.91222753     6.88642524    -1.97836620     1.03967124    -1.52854031    -0.13717917
O      -5.89609381     6.87644763    -5.95345033     0.03149884    -0.44133088     0.47794803
O      -5.84241956     2.02794889   -10.04677321    -0.38944396    -0.78987873    -0.05227521
O      -5.95506467     1.96022444    -6.07943825    -0.33633410     0.06348704     1.39584074
O      -9.77563814     6.90725932    -9.80493970     0.23598361     0.26885259     0.02768593
O      -9.78408539     6.65519682    -5.95019878     0.25322107     0.74703242    -0.64355533
O      -3.89645239     2.42279924    -4.07120987    -0.58797205    -0.49812117     0.62273980
O      -3.91335768     2.49581181    -7.97919737     0.03933303    -0.10195610    -0.04529800
O      -7.93645706     2.40854932    -3.95657170     0.22130115    -0.04330427    -0.20944692
O      -7.80098908     2.49389720    -8.00752822    -0.70824560    -0.42528282     0.17999629
O      -3.84803243     6.27960193    -3.99604485     0.26472991     0.88371740     0.27716088
O      -4.04585793     6.42592687    -7.95121528     0.84718193    -0.20894998    -0.15680344
O      -7.64662612     6.33345196    -3.95379252    -0.31946537     0.03151483     0.84953866
O      -7.69364455     6.26474999    -8.02014379    -1.12417021     1.26460772     0.13718428
O      -3.70007601     4.39100966    -2.00639647    -1.17863940     0.02769068    -0.37341394
O      -3.91637371     4.42757290    -6.02873698     0.19855629     0.12584623    -0.80407386
O      -7.93923817     4.40602394    -9.95658983    -0.10205296     0.10801300     0.02360967
O      -7.83863893     4.63424334    -5.96017567     0.16214582    -1.42972832    -0.57145555
O      -7.87633733     8.63898478    -9.96327298    -0.98734700     0.88659220    -0.04373652
O      -4.14765700     0.08307301    -6.18045664     0.08214826    -0.95105437     0.40429024
O     -11.63806541     8.63223028    -5.99904095    -0.05022803     0.05344142    -0.11084399
O     -11.65700873     8.64063183   -10.05475441    -0.72647172     0.57549858    -0.08376336
O      -2.05155229     4.22973593    -4.03893969     1.62799392    -0.88008032    -0.16980801
O      -9.75698574     4.74262568    -4.15269184    -0.00169672    -0.59346723     0.87309796
O      -5.88740517     4.06885654    -3.95960248    -0.52257654     0.13486573    -0.18615343
O      -5.82053901     4.29052100    -8.10001703     0.26425206    -0.01256494     0.24702676
O      -1.90942759     0.33806345    -3.94915901    -0.17261145    -0.53155653    -0.17342270
O      -5.83061620     8.66280643    -7.98730930    -0.21475893    -0.98386960     0.19756319
O      -5.78781284     0.04875942    -4.11449220    -0.48581311     0.23057674     1.40235817
O      -5.94403255     0.53963701    -8.12280329    -0.12909420    -0.51384443    -0.82589930
