# total energy = -630.69874777 eV

CRYSTAL
PRIMVEC
        0.00285542     0.02004370    -7.95977623
       -7.82940539     0.00763210    -3.98158109
       -3.91729101     8.74642787     0.01461334
PRIMCOORD
56 1
Li     -4.02180033     2.22618185    -2.02852190     0.82593776    -0.08596420     0.51424778
Li     -4.02769009     2.52930790    -5.91419850    -0.14668417    -0.75622533     0.02982269
Li     -7.76600477     2.18115566    -9.90859662    -0.18442885    -0.08573214     0.04018466
Li     -7.83957839     2.23278909    -5.77801366    -0.51203143     0.21570706    -0.49338366
Li     -3.83169407     6.65341810    -1.92600683    -0.76362729     0.04986592    -0.00404406
Li     -3.77108756     6.52472493    -5.88598974    -0.78981657    -0.02310037     0.04226767
Li     -7.89468231     6.43368295    -9.78508547    -0.26114773     0.17206305    -0.26118873
Li     -7.84160320     6.45518014    -5.79641899     0.27171643    -0.02253598    -0.18945080
Ti     -2.03662880     2.27376519    -4.08629998     1.18497091    -0.41634721     0.10946148
Ti     -5.88373250     6.73561799    -7.93003313     0.10668078     0.39750744     0.27176074
Ti     -7.81068323     4.33198623    -7.68723166     0.22941998     0.48619757     0.33005882
Ti     -7.82891320     4.36653135    -3.61988996    -0.88859050    -0.47942293    -0.37234795
Ti     -3.90326339     4.32485926    -7.64454943     0.41746367     0.80182781     0.10895196
Ti     -3.98257594     4.44872011    -3.60602192    -0.24817791     0.16293374    -2.27456870
Ti     -1.92634875     0.07261973    -2.08045423    -0.20368209    -0.78153306    -0.92072200
Ni     -5.85287341     2.40614606    -8.06898778     0.33589598     0.60321017     0.51707725
Ni     -5.95155867     2.20432444    -4.03030998    -0.14789896     0.05693717    -0.50887415
Ni     -9.88545601     6.49165517    -7.85679367     1.67433876     0.69734049     0.21990034
Ni     -9.85577832     6.34482568    -4.13719702     0.50100724     1.16487187     1.36311502
Ni     -1.97525778     2.14573863    -7.89167906    -0.52510352    -0.02013360    -0.61363626
Ni     -5.91890711     6.41982674    -3.98365909    -0.01713909     0.75522815     0.79007612
Ni     -5.89677285     8.73296532    -5.94276527     0.42349965     1.49799287     0.41019270
Mo     -5.83317166     0.07000282   -10.34014692     0.70418178    -0.74819364    -0.25510715
Mo     -9.77213180     8.75550310    -6.38022270     0.54095084     0.69546154     1.11210602
O      -1.98773096     1.93985242    -2.05070245    -0.05555277     0.90263274     0.89422766
O      -2.02111366     1.83364844    -6.07198210     0.16030178     0.25572444     1.36703778
O      -5.93798231     6.80963699    -1.95932306     0.07084174     0.19377618     0.49238179
O      -5.77731673     6.96527287    -5.89212032    -0.72434531    -1.34792775     0.02461559
O      -5.83874783     2.06682563   -10.18278123    -0.10733637    -0.18667952     1.17029806
O      -6.03962348     1.95531377    -5.93515897     1.17210825    -0.40749388     0.89869117
O      -9.84402799     6.97636033    -9.71714254     1.37514467    -0.44399184     0.58463958
O      -9.73394872     6.86857972    -5.94200308    -1.15844214    -1.18778346    -1.76538339
O      -3.89256666     2.43367093    -4.01563135    -1.30941581     0.04671594     0.10740815
O      -3.88242124     2.41999467    -7.85466868    -0.34687269     0.16244575    -0.51541012
O      -7.96773788     2.42023781    -3.83281461     0.93770162    -0.27631675    -0.78618100
O      -7.79643451     2.43967181    -7.94681571    -0.39488137    -0.53667772    -0.53227322
O      -3.89349720     6.38626417    -3.93209394    -0.40672672    -0.70296921     0.64718217
O      -4.01957251     6.32162981    -7.89415188     0.66089249     0.17833303    -0.62809874
O      -7.94757623     6.27125400    -3.84646390     0.63838690     0.51799324    -0.89495923
O      -7.81222360     6.30308144    -7.78623738    -0.17725098     0.73059855    -0.70286035
O      -3.74506871     4.32228567    -1.92350513    -0.19756163     0.06109443     1.10438429
O      -3.84053821     4.42623192    -5.87491479    -0.11272434    -0.06946513    -0.15470651
O      -7.83599070     4.37660247    -9.83781533    -0.19050629     0.12529154     0.51605610
O      -7.81619107     4.33286894    -5.94069828     0.02165449     0.07594842     0.64260128
O      -3.98635029     0.06407833    -2.08775663     0.47762345     0.19198334     0.43164483
O      -8.02208769     8.73244887    -6.05361481    -0.28551488     0.14139814    -0.03014281
O      -3.96256932     8.73616378    -2.15231438     1.84054986    -0.44799891     0.64351115
O      -7.55319985     0.05478759   -10.01762805    -1.86225518     0.78173608     0.25978550
O      -1.95157559     4.20439594    -4.04487991    -0.17900658    -0.49291384     0.37058225
O      -9.82802798     4.54103130    -4.05020535     0.61381621    -0.34521954     0.31397414
O      -5.92931556     4.46782389    -3.79243274     1.04637270    -0.01758923    -0.78286014
O      -5.78635538     4.41155581    -7.91231098    -1.39268703    -0.68711696    -0.44804052
O      -1.89782098     0.28404031    -3.95338086    -0.64255711    -0.24837814    -1.41219352
O      -5.76849458     8.63638872    -7.86860151    -0.53670449    -1.49700560    -0.65294254
O      -9.69935396     8.23121034    -4.08740073    -0.70505177     0.93577953     0.04804604
O      -5.74304564     0.62985182    -8.07692615    -0.73248242    -0.79632986    -1.02657788
