# total energy = -630.75286432 eV

CRYSTAL
PRIMVEC
        0.00279571     0.02951795    -7.98606283
       -7.83802570     0.01298533    -3.99532603
       -3.92160916     8.71933433     0.00634407
PRIMCOORD
56 1
Li     -3.85127910     2.27385687    -1.92587503    -0.14181238     0.16164607     0.02154936
Li     -4.02490036     1.87169655    -5.94111442    -0.09168500     0.46168261    -0.11748948
Li     -7.72249000     2.51969373   -10.02354842    -0.33786278    -0.35465673     0.32942558
Li     -7.79213413     2.04919836    -5.89428030    -0.90113849     0.15451139     0.13641054
Li     -4.03992572     6.42084046    -1.76389939     0.71944736    -0.25393513    -0.46633126
Li     -3.85662614     6.69566735    -5.83159773     0.11169602     0.08703689    -0.40189930
Li     -7.86022666     6.67829402    -9.92047338     0.15052706    -0.57725700    -0.26578085
Li     -7.91885059     6.55026936    -6.00208835    -0.03576785    -0.01899074     1.14926946
Ti     -1.92311902     2.34672393    -4.13826983    -0.88179927    -0.74984766     1.05004325
Ti     -5.92254428     6.88682208    -7.79068199     0.27794653     1.36952981    -0.57835758
Ti     -7.75073746     4.34869328    -7.79179756     0.25183245     0.36114600     0.08352920
Ti     -7.80427500     4.38126846    -3.83371549     0.13357462     0.66117588     0.86991913
Ti     -3.90720869     4.31678349    -7.59030822     0.81932227    -0.12151729    -1.42181703
Ti     -4.02945622     4.38005300    -3.81427431    -0.28299750     0.90128557    -0.49196446
Ti     -5.97581635     8.66094364    -2.23116027    -0.34527158     0.59798242     0.02837033
Ni     -5.93707723     2.33487684    -8.10162026     1.53815652    -0.81485936     0.62421889
Ni     -5.89402719     2.14544267    -3.95932515    -0.21147733    -0.30187886    -0.56360303
Ni     -9.73779638     6.39371643    -7.83839428    -1.15892652     0.61965509    -1.84024952
Ni     -9.81307176     6.42180448    -3.94505610     0.26970179     0.06262328    -0.06011090
Ni     -1.94104590     2.23963650    -7.90424513    -0.04743565    -0.51309236    -0.55786078
Ni     -5.84089576     6.63266168    -3.96270226    -0.26058923    -0.55606412    -0.52812889
Ni     -1.98834002     0.10652079    -5.96214251     0.16217460    -0.99037945    -0.32808804
Mo     -5.92569274     0.10487054   -10.29779627    -0.81668141    -0.64607105    -0.68532258
Mo     -9.85795224     8.64455988    -6.41368491     0.00430096    -0.56523380     0.97138234
O      -1.97416886     1.82777151    -1.96076914     0.43025565     0.49024330    -0.14281640
O      -2.05419329     1.91770238    -5.99781593     0.51053321     0.12460305    -0.28491674
O      -5.82247608     6.71959313    -2.03044796    -0.80622077     0.95612740     0.95778717
O      -5.85644029     6.97821006    -5.85958651    -0.26189398    -0.22636644    -0.54887840
O      -5.89636551     2.07357410   -10.12797043     1.13318833    -0.27063885     0.77839714
O      -6.01670494     1.84217396    -5.80310394     1.53590057    -0.50046149    -0.77218192
O      -9.69208595     6.84527961    -9.81558246    -0.99470172     0.80124595     0.08545792
O      -9.93978238     6.70678971    -6.05505902     0.65108859     0.31546933     1.16179146
O      -3.93102581     2.41002604    -4.00502173     0.12491012    -0.59193738     0.15778344
O      -3.85957490     2.38300743    -7.92737621    -0.34252173     0.48639361    -0.29379507
O      -7.84760402     2.35248315    -3.86347544     0.04840266     1.10568544    -1.01505984
O      -7.82116793     2.37461800    -8.00311431    -0.50695820     0.03745027    -0.38018811
O      -3.75359928     6.34237987    -4.07398962    -0.30125529    -0.54261345     0.99689007
O      -4.08597872     6.35265672    -7.75863863     0.16641970    -0.64590190    -0.66089807
O      -7.86597973     6.42960079    -4.01455772     0.23498351    -0.96039732    -0.01328577
O      -7.83792122     6.34414421    -7.84940511     1.36561234     0.05370230    -0.60541789
O      -3.85937866     4.34475091    -2.08541320     0.19033916    -0.01239318     0.96360013
O      -3.78631573     4.18880273    -5.90154935    -0.26851313     0.26454857     0.77740462
O      -7.81898006     4.47134937   -10.02967878     0.43268129    -0.29674477    -0.14889243
O      -8.06106943     4.33863219    -6.07393354     0.47282029     0.01121156     0.66921808
O      -7.93220799     8.64268501    -2.09248424     1.00488519     0.79550018    -0.01274488
O      -8.02808114     8.56256862    -6.04093518    -1.13298185     0.70827452    -0.20265649
O     -11.68020806     8.63447014    -6.02068922    -0.01219817     0.12222315    -0.63004053
O      -7.72966627     0.17680074   -10.08429949     0.77531768    -0.60556912     0.25410168
O      -9.70583073     4.18485879    -8.20039638    -0.56006340    -0.01039038     0.39376720
O      -9.74020861     4.60702814   -11.85932741    -1.17991549    -0.24644167    -0.68130333
O      -5.87120250     4.66769855    -4.20552881    -0.57527078     0.01905971     0.43788851
O      -5.82259628     4.15334586    -8.01293207    -0.53930395     1.01425796     0.34809597
O      -1.97319257     0.21729459    -4.08214902     0.10566233    -0.14120143     0.81511866
O      -5.87070109     8.73802114    -7.96666232    -0.19668200    -2.18762048    -0.01985639
O      -9.86168891     8.27877295    -4.04898333     0.08644641     0.28829661     0.18605948
O      -5.82495000     0.46542115    -8.17929839    -0.51212641     0.54537058     0.60398301
