# total energy = -630.74959893 eV

CRYSTAL
PRIMVEC
        0.00279571     0.02951795    -7.98606283
       -7.83802570     0.01298533    -3.99532603
       -3.92160916     8.71933433     0.00634407
PRIMCOORD
56 1
Li     -4.01145199     2.49554111    -1.93333741     0.34741850    -0.00107399     0.17909861
Li     -3.95402927     2.14529287    -5.82574655    -0.39118413     0.03715922    -1.33300539
Li     -7.92920459     2.24811575   -10.07192913     0.52932579    -0.02711548     0.40378441
Li     -7.94140304     2.11286124    -6.00333125     0.49156299     0.03964370     0.21659839
Li     -3.94518060     6.45368844    -2.07132201     0.05951696     0.19526703     0.30589534
Li     -3.91779395     6.57266436    -5.84011392    -0.02596990     0.03450400    -0.16986013
Li     -7.87188818     6.54283332   -10.03792943    -0.11849122    -0.31589246     0.54806507
Li     -7.75908516     6.21174522    -5.82381662    -0.27820052     0.33969677    -0.38544602
Ti     -2.03798582     2.25846239    -4.12656153     1.24703521    -2.00910010     0.97347130
Ti     -5.85087005     6.60348059    -7.84730449    -0.72687555     0.36364094    -0.33771780
Ti     -7.76585801     4.36817626    -7.79150725    -0.15343739    -1.27984687    -0.95983753
Ti     -7.87456040     4.25387568    -3.78739297     0.48594471    -0.81598921     1.70894725
Ti     -3.74014263     4.54887039    -7.74018066    -1.30207600    -3.30965831    -0.20012923
Ti     -4.04909420     4.47153067    -3.86290075     0.10892564     0.78106058     0.44099409
Ti     -6.11037237     8.62642314    -2.03146369     0.60816639     1.86969192    -1.19389552
Ni     -5.86264512     2.35149603    -8.01445558     0.39163312     0.06672722     0.10239527
Ni     -5.82296931     2.25439053    -3.94602154    -0.88830501    -0.38013844    -1.15512051
Ni     -9.79516630     6.60490453    -7.88372262    -0.12553703    -0.14230048     0.57769166
Ni     -9.69752043     6.50886585    -4.02759634    -0.21841679     0.29896380    -0.18620466
Ni     -2.06254566     2.07643878    -8.01911413     0.04249496     0.02012595     0.40831278
Ni     -5.96583893     6.69891423    -3.91518526     0.81846015    -0.55537878    -0.99619241
Ni     -5.88855943     8.70681019    -5.96004882    -0.46033437     0.39158107     0.22609241
Mo     -9.91509464     8.75264849   -10.25064905    -0.26719356     1.84264834    -0.08909411
Mo     -9.78118725     8.68420860    -6.37157360     0.57595429     0.00202577     0.92774289
O      -2.10025965     1.88388997    -1.90458502     0.59488102     0.00768999    -0.28469988
O      -1.95629285     1.77534595    -5.99551848    -0.51993363     1.38484325    -0.99918640
O      -5.96392340     6.76167833    -2.03430311     0.88297411    -1.03100261     0.68848577
O      -5.84589144     6.92559701    -5.87884132    -0.29298639    -1.54965957    -0.47797750
O      -5.87167312     1.97472699   -10.06923047     0.66294861     0.05700614    -0.03656146
O      -5.85214583     1.86779947    -5.85689777    -0.27008798     0.45269548     0.03916799
O      -9.84319776     6.99122712    -9.70948531     0.50168299    -1.29763726     0.20351896
O      -9.81115927     6.69529577    -5.96588420     0.59093280     1.11573449    -0.99162142
O      -3.95143383     2.50254793    -4.00501545     0.07737327    -0.80836986     0.51272015
O      -3.95321250     2.55610689    -7.92065134     0.64901948    -0.36496742    -0.71939810
O      -7.71240763     2.27276331    -4.00777919    -1.28850523     0.96540660     0.08138618
O      -7.80166608     2.36251215    -8.06595659    -0.45259199     0.45047062     0.45784361
O      -3.86351889     6.46326254    -4.01373335    -0.01219185    -0.69898383     0.44414379
O      -3.90497102     6.40216131    -7.88439101    -0.49153654     1.33999812    -0.25682537
O      -7.80778389     6.22129066    -3.96427821    -0.21631914     0.83464148    -0.13910702
O      -7.81829135     6.32688005    -7.89833734    -0.04336598    -0.11370508    -0.00126497
O      -3.94060772     4.50327677    -2.09409481     0.11719820    -0.41573546    -0.11531206
O      -3.90728468     4.27609730    -6.02898177     0.12022932     0.95714028     1.46626196
O      -7.83284226     4.28854482    -9.94725850    -0.43194860     0.08660867    -1.77495468
O      -7.76404021     4.21677569    -6.05377761    -0.45364115     0.30308770     0.87469227
O      -7.87194851     8.61086852    -2.07774464    -1.27854061     0.16108589     0.17435134
O      -4.02184712     0.13475896    -5.99663929    -0.46594427    -1.06744749    -0.34128657
O      -7.66410356     0.04242398    -6.12031149     0.17251623    -0.57284422     0.24635198
O      -7.75865415     0.16894464   -10.10044263     0.01989891    -0.76724216    -0.11273593
O      -1.95530732     4.04155763    -4.09723223     0.02865179     1.84800737     0.14145504
O      -9.77073143     4.66558679    -4.07145060     1.19416464    -0.46778044    -0.15991648
O      -5.95448282     4.41266703    -4.02538146     0.64983196     0.06680787    -0.19144139
O      -5.81961322     4.34771174    -8.05329968    -0.35024112     0.80998806     0.16890249
O      -1.96014873     0.20181149    -4.03552046    -0.02164379    -0.03297900     1.22271201
O      -5.94226205     8.40188285    -8.02342303     0.34614108     0.40480843     0.24868596
O      -9.66314758     8.40233937    -4.02916469    -0.46737523    -0.20054516    -0.14448377
O      -5.77161339     0.51323759    -8.14107822    -0.23670203     0.07267627    -0.31161559
