# total energy = -630.20859720 eV

CRYSTAL
PRIMVEC
        0.00279571     0.02951795    -7.98606283
       -7.83802570     0.01298533    -3.99532603
       -3.92160916     8.71933433     0.00634407
PRIMCOORD
56 1
Li     -3.97593436     2.13281203    -1.90885359     0.08365927     0.38965254    -0.06900147
Li     -3.94043970     2.18191464    -5.95501268    -0.37472274     0.09223694     0.11572982
Li     -7.95557600     2.33930614    -9.89911284     0.81452578    -0.70394503    -0.27507476
Li     -8.02549904     2.39518190    -5.87267055     0.90287875    -0.18773885    -0.35059618
Li     -3.83738638     6.45543258    -2.00037982     0.02744884     0.04779250     0.03272264
Li     -3.67102335     6.23618350    -6.01150785    -0.97951364     0.56278486     0.52972439
Li     -7.82667135     6.52114296    -9.88734962    -0.62969543    -0.00456605    -0.63720125
Li     -7.86833335     6.51101806    -5.69543852     0.58859995    -0.09389679    -0.89776939
Ti     -1.91282726     2.25935905    -4.02764147     0.28312517    -0.38643236     0.42377779
Ti     -5.84661349     6.68006261    -8.03722967     0.46330452     1.61843172     1.20305789
Ti     -7.77534289     4.49193587    -7.80804031    -0.54871004    -1.92576787     0.14815476
Ti     -7.81103991     4.24513466    -3.71432951    -0.41281424     1.39057434    -1.59174669
Ti     -3.82245669     4.36858898    -7.78709086     0.34818657    -0.02762653     0.23586796
Ti     -4.11587722     4.31394976    -3.74583753     1.18145861     0.18054111    -0.83609234
Ti     -2.26336859     0.03263540    -2.28935165     0.79391294     0.65508786     1.16411900
Ni     -5.82298261     2.39510276    -7.93724751    -1.16693696     1.61410388    -0.71846324
Ni     -5.94279620     1.88884752    -3.95853234    -0.15257437     0.82080354     0.00319358
Ni     -9.85610314     6.65225094    -7.96117345    -0.43885850    -0.05162516     0.68823013
Ni     -9.65963032     6.49586938    -4.09142424    -0.82809275    -0.22171391     0.42886984
Ni     -2.00224785     2.13905671    -7.87424660     0.28412704    -0.10259214    -1.01084828
Ni     -5.82430391     6.56232084    -4.00799719    -0.51002109    -0.09037979    -0.19878704
Ni     -1.90188626     0.03916707    -5.97560693    -1.30718181    -1.32107489    -0.98978736
Mo     -9.93449026     8.75197370   -10.13233708    -0.58571595     1.95972107    -0.81563651
Mo     -9.75294230     8.73604705    -6.39245238    -0.85692858    -0.44371450     0.04936065
O      -2.00008824     1.96721533    -1.97939013    -0.39939848    -1.12469923    -0.13325114
O      -2.01037156     1.92057102    -5.98767193     0.30855605    -0.57904840    -0.17622451
O      -5.99080293     6.89831353    -2.06756274     1.05733193    -1.10256839     1.08194517
O      -5.79315250     6.90021565    -5.94610954    -0.52951075    -0.07951817    -0.43253945
O      -5.88390063     2.08094319    -9.97176098    -0.53362846    -1.26312166    -1.03624373
O      -5.90843470     1.89533835    -5.92167420     0.74126819     1.20527459     1.33437957
O      -9.78653799     6.89913318    -9.83168103     0.24484128    -0.76260227     0.33183107
O      -9.73123689     6.80886858    -6.05876760    -0.18000630     0.01087849    -0.14994790
O      -4.09248596     2.40677403    -3.88609771     1.27318431    -0.92115674    -0.67264625
O      -3.93420730     2.46524135    -7.98572546     0.63347717     0.07979232     0.19512076
O      -7.89046083     2.37185466    -4.00125301    -0.30839528    -1.26048006     0.12744186
O      -7.79812684     2.42962229    -7.91506823    -0.53628208    -0.11125283    -0.23017825
O      -3.95026803     6.39377001    -3.90785397     0.96524503    -0.38527253    -0.63319311
O      -3.94990174     6.35301627    -8.02130922    -0.15860337     0.36979333    -0.06435303
O      -7.77050812     6.26198796    -3.83200794    -0.05693665     0.37544706    -0.61600226
O      -7.95233164     6.33347986    -8.03246750     1.02156574     0.89201743    -0.14860461
O      -3.78189439     4.45534217    -2.05252725    -0.25257220     0.06317047     1.36749797
O      -3.91823030     4.41875112    -5.99227291     0.53900278    -0.25200871    -0.66723031
O      -7.91810396     4.10404116   -10.00046372    -0.12631484     1.37172245     2.08493683
O      -7.82603047     4.44600568    -6.07885126    -0.19369438    -0.23295324     0.91369325
O      -4.03617424     0.06512344    -9.92705038     0.42031220     0.30996150    -0.38578673
O      -4.00928267     0.07824496    -6.20108344     0.30532082    -0.30349363     0.84208731
O      -7.61307954     0.12424388    -6.09463697    -0.62754689    -1.15702098     0.11308476
O     -11.69978437     8.73345848    -9.99725477     0.28849164     0.56028520    -0.04861810
O      -1.97728753     4.00955261    -4.07743086    -0.36307565     1.90635087    -0.00928118
O      -9.74058813     4.63227366    -4.15494612    -0.09439129    -0.02959598     0.71079869
O      -5.91888603     4.44799875    -3.97094987    -0.79529628     0.45344622    -0.15450914
O      -5.84928729     4.42247900    -8.01268581     0.17135797     0.26990304    -0.24323588
O      -2.05033032     0.18035490    -4.11534239     0.00876822     0.36866228     0.85228839
O      -5.97792947     8.53809472    -7.92501886     0.71983043    -1.16370858    -0.41469107
O      -9.70154659     8.42348779    -3.96432852    -0.11809709     0.07301847    -0.06850729
O      -5.82585219     0.66872480    -8.12526188    -0.20708478    -2.00251494    -0.39880882
