# total energy = -630.76154605 eV

CRYSTAL
PRIMVEC
        0.00285542     0.02004370    -7.95977623
       -7.82940539     0.00763210    -3.98158109
       -3.91729101     8.74642787     0.01461334
PRIMCOORD
56 1
Li     -3.90563673     2.26329645    -1.90756624    -0.07583014    -0.07463006    -0.31743085
Li     -4.04260951     2.08391462    -6.07862249     0.14729966    -0.14017185     0.27089398
Li     -7.95727324     2.28180461   -10.02993094     0.72056308     0.00414966     0.20948496
Li     -7.96118142     2.03262888    -5.83357476     0.57140184     0.20347958    -0.53929611
Li     -3.90158908     6.50663454    -1.89058981    -0.18024089    -0.19178395    -0.17615413
Li     -3.96286748     6.36142753    -5.73370276     0.35582729     0.23417159    -0.78929559
Li     -7.79955424     6.42383573    -9.81898212    -0.11043953     0.06986246    -0.41971342
Li     -7.80432809     6.58002339    -5.74333740    -0.27492481     0.07998841    -0.36499903
Ti     -1.97668086     2.12122585    -4.13249849     0.37202671     1.06798199     1.35855308
Ti     -5.85246586     6.88637913    -7.85491378     0.49371908    -1.14505095    -0.96966796
Ti     -7.80007318     4.39485593    -7.63181122     0.23757330    -0.15581191    -1.18479410
Ti     -7.71871637     4.36418962    -3.70730076    -0.33642639     0.37023389    -1.70064750
Ti     -3.87287208     4.39434226    -7.65526409    -0.05356161     0.00802834    -1.67086237
Ti     -3.85536410     4.32839476    -3.68707427    -0.64053557     0.64497646    -1.93746950
Ti     -6.09957231     8.71607972    -2.12845036    -0.56802879    -0.63682814    -0.28918203
Ni     -5.87282927     2.39090458    -8.08142244    -0.28041463     0.50520430    -0.01112628
Ni     -5.91149603     2.23780751    -4.15488538     0.39370713    -0.87320970     2.29926507
Ni     -9.76777744     6.59860888    -7.88717130    -0.39895555     0.01762084     0.30009691
Ni     -9.74764606     6.31617640    -3.95054660     0.39188313     0.54976824     0.15177919
Ni     -1.92983027     2.22625672    -8.01740291    -0.63723971     0.26162676     0.06860545
Ni     -5.83664078     6.64842758    -3.99889906     0.22001615     0.16711618     0.99814646
Ni     -5.87270688     8.73136493    -5.97576289    -0.57808814     1.21726232     0.69800020
Mo     -9.89753447     8.75516252   -10.07648378     1.06597637    -0.48164732    -1.29773903
Mo     -9.84765651     8.66622630    -6.21194207     2.64197718    -0.37543144    -1.23097627
O      -1.98085083     1.86971869    -2.07993323     0.19271801     0.44992573     0.69427153
O      -2.00208835     1.83013591    -5.95739431     0.02771277    -0.01321179    -2.03444288
O      -5.84986551     6.79619234    -1.97831762     0.15831433     0.08491543     0.33407943
O      -5.86412586     6.95192365    -5.90709922     0.04521206    -1.22673828     0.21916076
O      -5.76326088     2.03778060   -10.10084021    -0.73996419    -0.36644032    -0.33460304
O      -6.03353647     1.95709760    -5.92855124     0.86110160    -0.25864800    -1.69647877
O      -9.70737140     6.82271965    -9.94530400    -0.65634797     0.67768715     0.53625802
O      -9.81273693     6.69758268    -5.91508974     0.34284864     0.78895989     0.00006790
O      -3.88301443     2.33026981    -4.03670663    -0.35082889     1.10316618     0.01543368
O      -3.95111285     2.43592162    -7.99991755     0.37552063     0.89461120     0.55044429
O      -7.86586578     2.30446410    -3.98529700     0.00177956     1.05248594     0.29414349
O      -7.81993414     2.32888983    -8.06566199    -0.09090681     1.38355365     0.49644630
O      -3.84518956     6.42805596    -3.92613043    -0.01936486    -0.95731919     0.24266556
O      -3.88352131     6.47399900    -7.79330371    -0.83110538    -0.76104721    -0.57929783
O      -7.72350550     6.43753879    -3.85374030    -0.72586530    -1.52943596    -0.56916291
O      -7.84467939     6.47138314    -7.87018539     0.81097394    -0.86504657     0.12927778
O      -4.00105542     4.50075622    -1.98837102     0.24358863    -0.23330776     0.87884674
O      -3.94738598     4.47079768    -5.93325882     0.07695436    -0.23317075     0.68116661
O      -7.98347979     4.46893777    -9.96250128     0.31064353    -0.44837108     1.00618961
O      -7.90252921     4.42396587    -5.90174389     0.15405746     0.13252826    -0.37010645
O      -7.90897259     8.67044630    -2.11393902     0.15494528     0.25036960     0.86962237
O      -7.98090628     8.69019781    -5.97134315    -0.27933676     0.17738157    -0.47693278
O     -11.57891456     8.63176552    -6.09850568    -2.20864362     0.16341957     0.12081880
O      -7.71016700     0.03798397    -9.89384441    -1.21021863    -0.20086925    -0.13395124
O      -1.94073886     4.16825046    -4.08154851    -0.20299362    -0.46465959     0.76581613
O      -9.77388102     4.37376692    -4.15102402    -0.27805869    -0.13945835     0.90540942
O      -5.87331779     4.15696133    -4.18579074     0.61071766     0.08127366     0.94608110
O      -5.87105994     4.47433972    -8.11423020    -0.46598127    -0.84624635     1.12219704
O      -2.12770447     0.19241674    -4.00671102     0.94677566    -0.24692603    -0.29286165
O      -5.77732039     8.69055713    -8.04962676    -0.31313891    -0.21414315     0.27096406
O      -5.89400194     0.20206300    -4.04371060    -0.35908353     0.81192742     0.89116453
O      -5.80067159     0.55677466    -8.13433806    -0.00688629     0.07067217     1.13823166
