# total energy = -630.63503786 eV

CRYSTAL
PRIMVEC
        0.00285542     0.02004370    -7.95977623
       -7.82940539     0.00763210    -3.98158109
       -3.91729101     8.74642787     0.01461334
PRIMCOORD
56 1
Li     -3.81600730     2.46633993    -1.89842470    -0.31169516    -0.32376619    -0.01249516
Li     -3.86719129     1.89983909    -5.94828700    -0.42329565     0.55429960    -0.22144780
Li     -7.89456069     2.11139447    -9.91392884     0.36708342     0.11418664    -0.00353972
Li     -7.73040604     2.28329835    -5.96298272    -0.13024167    -0.16318422     0.05666762
Li     -3.89399675     6.61218332    -1.88421809     0.07352373    -0.25344769    -0.57132160
Li     -3.98328716     6.63408945    -5.91558306     0.29385434    -0.09845830     0.27003867
Li     -7.80331820     6.63972568   -10.05877164    -0.52440350    -0.35492686     0.32755415
Li     -7.78244298     6.48495059    -5.91307225    -0.05049461    -0.21944662     0.39611837
Ti     -2.03207678     2.25272729    -4.00708228     1.34445664     0.02287214    -0.14310803
Ti     -5.86093285     6.63840002    -7.94781494    -0.30195438     1.31033216    -0.53752215
Ti     -7.96001434     4.45543631    -7.68372195     0.68986973    -2.40419104     0.18044865
Ti     -7.95660009     4.27607993    -3.68149981     0.06984166     2.48099330     0.83491800
Ti     -3.92647310     4.36675334    -7.64369711    -0.21510588    -1.06144929     0.10612890
Ti     -4.12503608     4.40743421    -3.70582787    -0.16203555     1.62030841    -0.13245320
Ti     -5.71452928     8.74757005    -2.20345206     1.00021602    -0.68759610     3.07012891
Ni     -5.89070768     2.35720878    -8.05236949    -0.21265328     0.99592887     0.18494883
Ni     -5.89936686     2.18268908    -3.90966641     0.32305890    -0.14766766    -0.58633162
Ni     -9.71546627     6.59991325    -7.98563714    -1.77480778     0.20408665     0.79743734
Ni     -9.82877371     6.53813107    -4.00381096     0.51622423    -1.96526968     0.08271115
Ni     -2.02409429     2.09049894    -7.96992121     0.92405648    -0.25524677     0.43396771
Ni     -5.89411704     6.68417603    -3.90262453    -0.44329553    -1.33234821    -1.43944037
Ni     -5.82214099     8.74009385    -5.95523527     0.02316411     0.25122849    -1.05608992
Mo     -5.83096093     0.03991626   -10.20653264    -0.40005570     1.30780219    -1.19814268
Mo     -9.62730478     8.66010668    -6.32949213    -0.82292150     1.06487230     0.37826836
O      -1.90792334     1.84442572    -1.87588237    -0.59165491     1.16092541    -0.86968137
O      -1.96514574     1.82556079    -6.04125276    -0.06988402     0.40669481     0.48989086
O      -5.96007653     6.81586730    -2.05700317     0.80949447     0.06374396     0.65446134
O      -5.92210279     6.93442081    -6.07724640     0.60163644    -0.67082737     1.24010774
O      -5.89770736     2.02238282   -10.03157302     0.14476390     0.43510506     0.16467265
O      -5.80020433     1.76949030    -5.79841865     0.06677111     0.17393141     0.18494247
O      -9.80465125     6.95161623    -9.83870238     0.39859198    -1.79167515     0.91618009
O      -9.75966981     6.80402894    -5.99065990     0.06643514    -0.47152101    -0.50988211
O      -3.92172460     2.44815390    -3.87725025    -1.19811336    -0.65085085    -0.49851257
O      -3.88892647     2.42428387    -8.01284710    -0.46804884     0.18882685     0.71983537
O      -7.80112561     2.48755897    -4.09343473     0.02982210    -2.06608681     0.93412580
O      -7.91486536     2.38598408    -7.93969171     0.17725437     0.42155453     0.06827420
O      -3.87973337     6.47022501    -4.00591125     0.34812324    -0.99444669     0.61789138
O      -3.96943079     6.29885234    -7.90857776    -0.26407714     0.81616963    -0.31834079
O      -7.84139131     6.29654389    -4.00444514    -0.52080260     0.89424007     0.33994143
O      -7.81834984     6.28247890    -7.98164835    -0.06898199     1.82017538     0.00893092
O      -3.86993349     4.42468281    -1.94796716    -0.34701852     0.25170978    -0.76417764
O      -4.04573967     4.43610415    -5.90627568     0.32443914    -0.12965941     0.47839785
O      -7.95081888     4.39596523    -9.85762533     0.06405881    -0.31732432    -0.84930631
O      -7.95801378     4.42748924    -5.90816189     0.14065240    -0.01659908    -1.08242033
O      -4.02675935     0.02838997    -2.07470428     0.02861716     0.04790038     0.03077771
O      -7.80290832     8.66349562    -6.06338450    -1.30958461     0.07439954    -0.21796390
O     -11.64513937     8.74971686    -6.06664733     0.37775264    -0.66534339    -0.49650941
O      -7.66026953     0.08511545    -9.89860830    -1.52888294     0.00718229     0.00336809
O      -2.03897112     4.09101928    -3.92380640    -0.28439528     0.50913580    -0.43226662
O      -2.03259076     4.52824895    -7.84496810     0.34418495     0.85524860    -0.51868333
O      -5.99265558     4.68278025    -4.00952398     0.86993562    -0.15118324     0.46460050
O      -5.96234374     4.27775355    -8.01020164     0.47024657     0.34311619     0.30674065
O      -2.10269622     0.22412591    -3.94799552     0.02790999    -0.10023377    -2.29816382
O      -5.84145626     8.50539284    -8.10654432    -0.01536861    -0.91019537     0.55151941
O      -9.99070533     8.34753534    -4.01792160     0.97093472     0.81510591    -0.87887590
O      -5.86525568     0.57839559    -8.06048230     0.40272284    -1.12000007     0.42026205
