# total energy = -630.45450017 eV

CRYSTAL
PRIMVEC
        0.00279571     0.02951795    -7.98606283
       -7.83802570     0.01298533    -3.99532603
       -3.92160916     8.71933433     0.00634407
PRIMCOORD
56 1
Li     -4.10624567     2.19748035    -2.01716062     0.55722170     0.15193037     0.22927658
Li     -4.06127135     2.41721725    -5.97021405     0.17878468    -0.16804079    -0.35867655
Li     -7.80565037     1.95785372    -9.89929804    -0.31761288     0.57820720    -0.45360782
Li     -7.74557161     2.30405865    -6.01193413    -0.91455364    -0.29335650     0.33273961
Li     -4.07504516     6.29872460    -1.95128281     1.08980077     0.70275019    -0.37934363
Li     -4.10821034     6.24547219    -5.81843000     0.32752451     0.04825634    -0.41668999
Li     -7.92842542     6.42566234    -9.97439231     0.27425791    -0.17342602    -0.12716437
Li     -7.86591343     6.48409387    -6.02687350     0.25034485    -0.00008277     0.76198353
Ti     -1.99731964     2.29879505    -4.13329230     0.83188104    -0.74243547    -0.26256637
Ti     -5.87438323     6.75428054    -8.12622543    -0.30983266     0.22866627     1.28315037
Ti     -7.72379833     4.38042249    -7.69774427    -0.35993677     0.51602058    -1.07208479
Ti     -7.81690214     4.18365501    -3.74489534     0.86071009     1.43798958    -0.10501490
Ti     -3.68964411     4.40918077    -7.78538502    -1.16879491    -0.38686407     0.79866342
Ti     -3.92047660     4.37319512    -3.73018332    -0.17134814     1.51118575     0.67372396
Ti     -2.19893207     0.05406701    -2.20435526     1.03755163    -0.73431083    -0.87784254
Ni     -5.91115911     2.50020594    -8.07352471     0.15863588    -0.57515593    -0.46950955
Ni     -5.89696585     2.13608489    -4.04140022     0.31009008     1.55672293     1.36362823
Ni     -9.75830567     6.47315133    -7.84217179    -1.28754337     0.17102213    -0.03987045
Ni     -9.75556627     6.66653402    -3.89535373    -0.24937041    -0.08963440    -0.66434078
Ni     -2.04119272     2.09735073    -8.06343196     0.95510107    -0.06328127     0.62363929
Ni     -6.00551852     6.59644346    -3.97531134     0.45240367    -0.31411042    -0.79549293
Ni     -5.99570299     8.65668566    -6.07650805     0.49932092     0.68914308     0.93216492
Mo     -9.93575237     8.66596149   -10.06811426     0.10389017     0.20617830    -1.06508401
Mo     -5.83569834     0.07409104    -6.27252255    -1.57709104    -2.39643552    -0.58612884
O      -1.89140692     1.89335048    -1.98549781    -0.45944928     0.15942641    -0.78779237
O      -1.92190951     1.80753066    -6.08015875    -0.93281647     0.08657102     0.34327513
O      -5.90675348     6.73158892    -2.06607739    -0.23898555     0.57807181     0.76981809
O      -5.93921913     6.73263113    -6.04321562    -0.35711557     1.33130148     0.15797326
O      -5.93743140     1.99957047   -10.05308276     0.51091262     0.13564909    -0.30643937
O      -5.98358022     1.95786749    -5.90361946     1.28818272     0.92747317     0.02231108
O      -9.78173410     6.81678426    -9.80349020    -0.49104527    -0.11579027     0.01710209
O      -9.72194624     6.81910560    -5.93538627    -0.24358267     0.28875139     0.44298580
O      -3.88407400     2.42364277    -3.98631951    -0.32071834    -0.68915499    -0.10633582
O      -4.03361433     2.54823549    -8.13680568    -0.35278454    -0.69790997     0.77866540
O      -7.76649959     2.29381438    -3.90294254    -0.04436064    -0.68757254    -0.57548424
O      -7.92534318     2.48298386    -8.02620799     1.49027833    -0.80235284    -0.14445058
O      -3.95535904     6.31548068    -3.98088683     0.43030606    -0.08851959     0.45613785
O      -3.92618750     6.31054108    -7.92109179    -0.32602792     1.46492536    -0.22550342
O      -7.92529451     6.29012093    -3.97953762     0.33659840     0.04860249    -0.25676380
O      -7.86803288     6.38331963    -8.00873229     1.10037986    -0.28227131     0.46716218
O      -3.73279608     4.49475055    -1.93635634    -0.16631698    -0.62848945    -1.19131590
O      -3.69666248     4.33948235    -5.96497336    -0.30887391     0.11591698    -0.81534547
O      -7.75975886     4.53464618   -10.02785401    -0.15998550    -0.53796006     0.61866677
O      -7.74336601     4.23510865    -5.97239294    -0.19697153     0.77300224     0.74037790
O      -7.90502763     8.70103819   -10.01607808    -0.82745424     0.29898533     0.26161690
O      -3.99659928     0.06813175    -6.12964535    -0.08656708    -0.25103428     0.02426296
O     -11.58347353     8.61376720    -6.16759332     0.42146239     0.21176337     0.40211604
O      -7.78127999     0.05761512    -9.98858188     0.08578202    -0.88452849    -0.06425619
O      -9.68995988     4.18636785    -8.03861448    -1.31546392     0.18114751     0.03596502
O      -1.88851363     3.97126523    -8.02235221     0.58645719    -0.48095049    -0.23500139
O      -5.75419228     4.22568989    -4.03611192    -1.55597310    -0.41729620     0.04455398
O      -5.84842952     4.45488570    -8.01461231     0.54595056     0.29616519    -0.10217724
O      -2.05332793     0.18476369    -4.08563778     0.14065445     0.40085372     0.60650924
O      -5.90416341     8.71480719    -8.08061178     0.20738462    -1.23356508    -0.07972359
O      -5.79474641     0.28192245    -3.97023544    -0.56127878    -0.36390067     0.55068708
O      -5.87700254     0.61324171    -8.05451981     0.17170800     0.16664247    -1.19800311
