# total energy = -630.36461405 eV

CRYSTAL
PRIMVEC
        0.00279571     0.02951795    -7.98606283
       -7.83802570     0.01298533    -3.99532603
       -3.92160916     8.71933433     0.00634407
PRIMCOORD
56 1
Li     -3.89283866     2.37758813    -1.85285540     0.26336415    -0.10519384    -0.74957241
Li     -3.91055344     2.35432256    -5.94867997    -0.84984704    -0.10914178    -0.22299167
Li     -7.77895227     2.08987970    -9.94819486     0.09321144     0.44705503     0.14890881
Li     -7.84856371     1.85783459    -5.90103313     0.22304921     0.69129356    -0.27236418
Li     -3.96081154     6.42559097    -2.09706881     0.08632985     0.34914131     0.63970906
Li     -3.97962951     6.42642859    -5.95584766     0.20835430     0.36103602     0.25037625
Li     -7.81049106     6.26293957    -9.93798873    -0.63774227     0.40284983    -0.27472019
Li     -7.79481901     6.49278707    -5.90358490    -0.32168967    -0.17351373     0.08384183
Ti     -2.02517749     2.38148617    -4.12322072     2.01967839    -0.31886892     0.76784359
Ti     -5.91712587     6.65109981    -8.03043665     1.22623463     2.06095736     0.37690668
Ti     -7.76823862     4.44019977    -7.74536493    -1.22535613    -1.77989002    -0.41128136
Ti     -7.92828490     4.23457524    -3.76476813    -0.84639529     0.90941770     0.22578659
Ti     -3.94379645     4.41991695    -7.78187824     1.42185539     1.26971112    -0.02376366
Ti     -4.11904784     4.42994079    -3.80358373     0.67362144     0.90874320    -0.40691172
Ti     -2.09078815     0.02079068    -2.19670370    -0.09817059    -0.04445508    -0.48629728
Ni     -5.73889518     2.39601243    -8.01521077    -1.18174836    -0.83609196     0.14174963
Ni     -5.86452234     2.29478596    -4.01169060    -0.35443137    -0.90850939     0.07114972
Ni     -9.91960519     6.57209093    -7.88726998     0.63544677     0.08638335    -0.74767388
Ni     -9.74669629     6.49126660    -4.06448903    -0.57574117     0.13876919     0.11500022
Ni     -2.01001659     2.04619271    -7.90672403     0.53379701     0.08363734    -0.34823674
Ni     -5.93995296     6.51592204    -3.94461051     0.01687357     0.31889173    -0.89138146
Ni     -5.97533351     8.64512179    -5.85505032    -0.02642642     0.40603340    -0.64632057
Mo     -5.83300544     0.06096997   -10.26507086    -0.86986044    -0.51464918     0.34742026
Mo     -9.71913540     8.61788796    -6.37068133    -0.25790905     0.09404338     1.00311172
O      -1.98378445     1.85378370    -1.83649173     0.45176954     0.38885911    -0.03298566
O      -2.12608134     1.74891795    -5.95122956     0.76534923     1.37978359    -0.91633422
O      -5.90740099     6.75132544    -2.04733053    -0.18477460     0.19189439     0.81259231
O      -5.92177385     6.84687885    -5.86868388     0.39032994    -0.66351458     0.35305279
O      -5.71891098     2.01437012   -10.06542609    -0.68731796     0.80473237    -0.12826060
O      -5.91741511     1.93518587    -5.91663508     1.26376347    -0.19589298    -0.02825812
O      -9.81175281     6.87815196    -9.90140670     0.57761750     0.20633301     0.85871177
O      -9.90792727     6.64598518    -6.01840227     0.67398142     1.28838054    -0.25360627
O      -3.86625341     2.42937974    -3.92400051    -1.03309292     0.42327492    -0.70588888
O      -3.83796824     2.54498435    -8.02385186    -0.06422801    -0.35773836     0.80343925
O      -7.93216898     2.33171616    -4.01231702     0.33233361    -0.23313708     0.67715096
O      -7.75927147     2.44982484    -7.90524533    -0.58661595     0.06844361    -0.93738204
O      -4.00196618     6.51750766    -4.01687844     0.39486586    -1.96109339     0.23942966
O      -3.95126332     6.52274051    -7.91844017    -0.40168995    -1.67607595    -0.49102107
O      -7.82938990     6.26695495    -4.03711832    -0.05423882    -0.47537022     0.73857602
O      -7.81271098     6.41704147    -7.91025471    -0.49449483    -0.33315829    -0.44687660
O      -3.89912802     4.42642025    -2.08272033    -0.25960945     0.24286431     0.59695533
O      -4.00279926     4.44682028    -6.00667389     0.41680509    -0.26734929     0.17291992
O      -7.95239894     4.39911539    -9.95673111    -0.21858883    -0.46150627    -0.88413554
O      -7.93940669     4.35245338    -6.04732487     0.53199118     0.48362315     1.39677193
O      -3.95787167     0.11690878    -2.10354789     1.42516791    -0.72863277     0.21215416
O      -7.96297538     8.50470007    -5.73252661    -1.13082572     0.45279963    -1.17343068
O     -11.57032230     8.71152150    -6.19440020     0.05886363    -0.47900052     0.25996370
O      -7.53725637     0.23958909    -9.82693697    -0.76130881    -0.54926130    -0.24409624
O      -1.93320008     4.24773916    -4.00467277    -0.81761937    -0.48048015    -0.59990617
O      -9.82936106     4.66260614    -4.23667243    -0.40717469    -0.25329612     1.20540538
O      -5.99794843     4.29562632    -3.95402678     0.45618527    -0.18374537    -0.42768652
O      -5.86255873     4.36406839    -8.12733107     0.53801473     0.51370222     0.35721339
O      -1.96048900     0.36338866    -4.01214263     0.20295689    -0.71495155     0.66100299
O      -5.92726693     8.47079199    -7.84050152    -0.12821164    -0.44883665    -0.33688399
O      -9.75755290     8.50796762    -4.03205893    -0.72296302    -0.22417869    -0.59909962
O      -5.47126723     0.49891207    -8.07903346    -0.66033725     0.65215868     0.37463110
