# total energy = -629.75726686 eV

CRYSTAL
PRIMVEC
        0.00285542     0.02004370    -7.95977623
       -7.82940539     0.00763210    -3.98158109
       -3.91729101     8.74642787     0.01461334
PRIMCOORD
56 1
Li     -3.91843004     2.18031219    -1.96633622     0.18745284     0.08701612     0.26639229
Li     -3.88623571     2.47441495    -5.92163241    -0.39908091    -0.27609204    -0.15055179
Li     -7.81865321     2.35131212    -9.92089326     0.44997223    -0.03085430    -0.50655944
Li     -7.75966149     2.39787498    -5.78134122    -0.62805269     0.29789705    -0.41490942
Li     -3.80408538     6.66155785    -1.96262360    -0.61419359    -0.61675270     0.17827998
Li     -3.80920396     6.43990205    -5.66975854    -0.30331927     0.15998332    -0.71064790
Li     -7.89572866     6.50019561    -9.76450108    -0.05575646     0.05194236    -1.05679425
Li     -7.78936676     6.71135295    -5.94997679    -0.07068564    -0.13632117     0.79216114
Ti     -1.80174208     2.12589658    -4.11331067    -0.42467268     1.06022052     0.24720090
Ti     -5.83688599     6.65781886    -7.87523909     2.19501491     0.61497366    -1.16979217
Ti     -7.87307271     4.56108045    -7.76384647    -0.34363240    -1.43272564    -0.18110602
Ti     -7.72537666     4.42758893    -3.68233710    -1.20462049     0.50201279    -1.34477605
Ti     -3.95072724     4.38803048    -7.80868267     1.46884473    -0.12208880     1.37378852
Ti     -4.01094127     4.33378695    -3.68148805     0.85672799     0.78151693    -1.95392457
Ti     -6.13491103     8.67254519    -2.06366010     0.12356508    -0.35884804     0.55060786
Ni     -5.85207246     2.33289960    -7.99211086     0.82733469    -0.40803680     0.28858805
Ni     -5.83529153     2.00599315    -3.96915603    -0.70208582     0.30817450     1.10630238
Ni     -9.76903638     6.67443518    -7.88992796    -0.03934372    -0.00706207     0.96387002
Ni     -9.80832719     6.43665899    -4.10427252     0.33883408    -0.88342079     0.78811318
Ni     -1.92687462     2.19234522    -7.93027671    -0.05131012    -0.25405109     1.48571189
Ni     -5.77613560     6.59295371    -3.91489883    -0.87328385     0.30980472    -0.00811560
Ni     -6.02018660     8.71764435    -5.97225176     0.76848035     0.54466034    -0.34679938
Mo     -9.93850877     8.76024205   -10.21473340     0.28103760     0.74266239    -0.89990212
Mo     -9.85034072     8.75824040    -6.35396552     0.74589281     0.85752904     0.61398119
O      -1.80954612     1.83172869    -1.69205082    -0.77496756    -0.49742262    -2.84262836
O      -2.03262772     1.82726475    -5.99125423     0.46880646     0.42437136     0.40197248
O      -6.00892744     6.67356708    -2.00242273     0.72245613     1.55078355     0.10595153
O      -5.82386400     6.90971387    -6.02187638    -0.15912368    -0.12032849     1.98476411
O      -5.82491374     1.95009621    -9.92749699    -0.04342938     0.15191366    -2.07298727
O      -6.01991957     1.91852489    -5.79961801     1.11124165    -0.68496105    -0.65656050
O      -9.77566408     6.94441613    -9.69872875    -0.18982798    -0.45355336    -0.35126397
O      -9.73507032     6.86476053    -6.03241233     0.56520596    -1.38156384     0.05256563
O      -3.86123258     2.45153389    -4.01212585    -0.34775332    -0.88549707     0.35536318
O      -3.87579759     2.41709292    -7.89243421    -0.30723740     0.49494074    -0.11854242
O      -7.87155460     2.44828974    -3.92372972     0.81109306     0.17780063     0.33193003
O      -7.71521903     2.44682396    -7.95973438    -1.62550391    -0.06940681     0.05344619
O      -3.80386628     6.41573739    -3.79794764    -0.13003568    -0.84064163    -0.79550080
O      -3.92681606     6.41702052    -8.04411934     0.07532177    -0.66457025    -0.02083943
O      -7.89249733     6.37331473    -3.87288623     0.07825054    -0.53509384    -0.66965247
O      -7.71064820     6.51629720    -7.88732283    -2.20141889    -0.85290963    -0.29530972
O      -4.00300276     4.30538045    -1.98038564     0.59699073     0.18265972     1.81719055
O      -3.92798458     4.66963822    -6.04487397    -0.22087826    -1.14831588     0.29238201
O      -7.75153440     4.34493140    -9.92699467     0.04765590     0.10357526     1.96682689
O      -7.72708466     4.52503384    -6.04880139    -0.41997392    -0.46777234     0.96055773
O      -7.95211149     8.73396612    -2.21630455     1.59491442     0.44152891     0.77325938
O      -4.06666803     0.04850005    -5.85766254    -1.04400310    -0.44424556    -0.94249868
O      -3.81104281     8.47130229    -2.14995205     0.92614183     1.70648150    -0.03658082
O      -7.74830809     0.11171896   -10.11330500    -1.51676886    -0.02157057     0.60171339
O      -1.97229960     4.12466724    -4.03903748     0.77060543    -0.83106153     0.13247426
O      -9.79040484     4.51273738   -11.76096188     0.75161181     0.87771600    -1.44058940
O      -5.83728321     4.67823775    -4.00256814    -0.20941723    -0.07842549    -0.25116778
O      -5.84134506     4.32040334    -7.94508092    -1.30999983     0.34099388    -0.31420972
O      -1.89752717     0.19179053    -3.94876361     0.24850033     0.24683389    -0.18310971
O      -5.83506138     8.48677327    -8.01982030    -0.43471323     0.17289511    -0.18526631
O      -9.83229897     8.29555191    -4.01723543    -0.09314805     0.33252222    -0.42595795
O      -5.76070446     0.40567678    -8.19030093    -0.33667177     0.87543153     1.96639955
