# total energy = -630.62717291 eV

CRYSTAL
PRIMVEC
        0.00279571     0.02951795    -7.98606283
       -7.83802570     0.01298533    -3.99532603
       -3.92160916     8.71933433     0.00634407
PRIMCOORD
56 1
Li     -4.17998207     2.48086687    -1.87330835     1.05303499    -0.26509896    -0.13569102
Li     -4.03977150     2.28419395    -5.92805144     0.28034301     0.08288315    -0.33968405
Li     -7.95457766     2.36886218    -9.94229274     0.51103918    -0.01794206     0.09395602
Li     -7.81349503     2.08056368    -5.84835392     0.18754584     0.04358822    -0.19419092
Li     -3.93369781     6.66642516    -1.89313862     0.31348093    -0.16903362    -0.21247321
Li     -3.80138327     6.29233339    -5.92391123    -0.12643686     0.73699412     0.32400438
Li     -7.97163947     6.40983989    -9.96265891     0.31979327    -0.00468267    -0.17851492
Li     -7.69526690     6.45248062    -5.94264942    -0.47800082     0.22141325     0.15488165
Ti     -2.04055877     2.00198180    -4.05527815    -0.35429801    -0.03967485     0.45766945
Ti     -5.85193898     6.41012416    -7.96743832     0.08062254     0.26202398    -0.42321629
Ti     -8.08370748     4.40694967    -7.70405011     1.14051852     0.32465669     0.77224132
Ti     -7.72201633     4.30974953    -3.73204591    -0.42762921     0.34691179     0.00155382
Ti     -3.61610137     4.44860553    -7.72878857    -0.17747722    -0.19414770    -0.99437410
Ti     -3.93032976     4.44503050    -3.65148383    -0.06738321     0.08154585     0.27853047
Ti     -6.21976801     8.69896187    -1.82739742    -1.60716507    -0.88954460     0.23981965
Ni     -5.89283601     2.57668353    -8.08864024    -0.05371141    -1.41636346     0.63164222
Ni     -5.94779459     2.21878798    -4.03199348     0.77060386    -0.46034439     0.54117382
Ni     -9.79762403     6.77827981    -7.97156367     0.88099398    -0.85319856    -0.31796481
Ni     -9.70984460     6.47939509    -4.19230768     0.71889234    -0.19425050     0.92150353
Ni     -2.01575196     2.05343184    -7.84460804     0.12853979    -0.22816381    -1.03746623
Ni     -5.84478657     6.54121164    -3.94699231    -0.00877684    -0.26569952    -0.24826062
Ni     -5.96009238     8.55574598    -5.96972757     0.10751148     1.92570969    -0.54058743
Mo     -6.03459987     0.08473217   -10.40261777     0.94636174     1.42616787     1.32254850
Mo     -9.78289741     8.67394020    -6.43173319     2.66187673     1.31409476    -1.08917671
O      -1.86676325     1.76216267    -1.85836539    -0.31104760     1.24991970    -0.37618244
O      -2.01950256     1.82404026    -5.98357602    -0.02207312    -0.50627467     0.33888662
O      -5.84293497     6.74699836    -2.02810054    -0.27239702     0.79726676     0.35677640
O      -5.79258159     6.76370489    -5.94516390    -0.36546481    -0.01314853    -0.05418893
O      -5.89855247     2.06136663   -10.12298798    -0.96248398    -0.27545778    -0.70710024
O      -5.82375359     1.85059383    -5.86502011    -0.36801381     1.21798942     0.31762631
O      -9.77197343     7.01298797    -9.85470603    -0.51344019    -1.17404613     0.51309441
O      -9.72307578     6.75659432    -6.09607669    -0.08256490    -0.56855054    -0.39874116
O      -3.93105966     2.39313292    -3.94779049    -0.33944757     0.38008375     0.20395164
O      -3.99781544     2.59461705    -7.99560387     0.57701064    -0.50030671     0.29694351
O      -7.86390323     2.34738174    -3.89723177     0.00246878     0.48023102    -0.41333581
O      -7.82712870     2.49556574    -7.86948989    -0.69283814    -0.07586374    -0.76234527
O      -3.77402873     6.37547013    -3.87078046    -0.76185725     0.30189772    -0.76589292
O      -3.89549125     6.43916150    -7.93450969     0.31220927    -0.99469229    -0.21104297
O      -7.77600531     6.31886308    -4.01639514    -0.04718305    -0.06477408     0.38960585
O      -7.82644979     6.46680375    -8.05740183    -0.23512972    -1.04301672     0.81363753
O      -3.89998539     4.49581809    -1.89084533    -0.05630239    -0.42439441    -0.61194536
O      -3.66225745     4.44449938    -5.98853386    -0.57679480    -0.19745591     0.98868657
O      -7.87622529     4.40762126    -9.94076061     0.14224037    -0.09078216     0.19792602
O      -7.70226968     4.50323088    -5.96187598    -0.35547692    -0.33268368    -1.20456073
O      -4.14409438     0.10831137    -9.76078314     2.24040422     0.06303347    -0.76147217
O      -7.99925176     8.65435544    -6.17833903     2.21487640     0.03675316     0.42365381
O     -11.39788546     8.70385768    -5.91383387    -4.28341291    -0.31286748     0.79154964
O     -11.67551510     8.73893981   -10.23248552    -1.06642234     0.40079651     0.62509112
O      -2.06120734     4.09423437    -3.89465815     0.68418981    -0.59055672    -0.14387434
O      -9.60058447     4.58037796    -4.06328383    -1.23584292     0.59040436    -0.41681667
O      -5.83626125     4.55499438    -3.98670122     0.56049330    -0.06544601    -0.19165846
O      -5.84244361     4.51611857    -8.05050091    -0.18729124    -0.11802009     0.44504669
O      -2.22498943     0.12888180    -4.01024354     0.95729130    -0.09490295     0.57010428
O      -5.74918377     8.43896377    -7.99439040    -0.65032834    -0.44484850    -0.08842678
O      -9.60582776     8.30757784    -4.10461259    -0.12043445     0.41926495    -0.25811066
O      -5.92901103     0.65390319    -8.15617183    -0.72913255     0.34084507    -0.02751137
