# total energy = -630.20004015 eV

CRYSTAL
PRIMVEC
        0.00279571     0.02951795    -7.98606283
       -7.83802570     0.01298533    -3.99532603
       -3.92160916     8.71933433     0.00634407
PRIMCOORD
56 1
Li     -3.97526456     1.93305794    -1.87173597     0.12261126    -0.17967919    -0.39219368
Li     -3.97853168     2.20284613    -5.93442664     0.23985095     0.33844526    -0.21924549
Li     -7.64235499     2.19222383    -9.94400940    -1.54299501     0.41480605     0.03824671
Li     -7.79440556     2.52246761    -6.00392594    -0.24937974    -0.75283168     0.53118064
Li     -3.75300698     6.42518865    -1.87637146     0.14030197     0.17118038    -0.28575306
Li     -4.09334249     6.67827172    -5.75675188     0.30451037    -0.56930004    -0.27404659
Li     -7.86201301     6.47112537    -9.93768039    -0.04317100     0.05557512    -0.09533500
Li     -7.84794975     6.80134919    -5.87746221     0.26402849    -0.26545638    -0.25918447
Ti     -2.01192563     2.43459674    -4.05728366     1.65663381    -1.04739771    -0.19067345
Ti     -5.86252524     6.71692661    -8.11897078    -0.92111340     1.59709495     0.97272319
Ti     -7.86079544     4.51758660    -7.74217118     0.47403412    -0.18194643     0.90505447
Ti     -7.89725950     4.40958114    -3.70942267     0.08359282    -0.48285384     0.26637451
Ti     -4.03278271     4.38931276    -7.70794875     0.52694850    -0.71311294     0.87214817
Ti     -4.08986380     4.33966560    -3.61881564    -0.91843863     1.05604522    -0.29157234
Ti     -5.57193805     8.72457476    -2.23672726    -1.22062730     1.26670745     0.69721653
Ni     -5.85520853     2.08859411    -8.03584512    -0.87391086     0.20522620    -0.44833156
Ni     -5.96325653     2.23998074    -3.88233487     0.00685126     0.21723725    -0.98898448
Ni     -9.83287029     6.35662904    -7.97329775    -0.77696276     1.24271181     0.21876745
Ni     -9.73052091     6.40860616    -4.01725806    -1.02455852     0.64774918     1.24055710
Ni     -2.02688216     2.25567885    -8.02306905     1.01655805    -0.59075091     0.01588666
Ni     -5.95960818     6.72121567    -3.95694338     0.04026319    -0.24270983    -0.17311102
Ni     -1.99328292     0.08663569    -6.01421932     1.02713026     0.68316148     0.45160180
Mo     -9.82051562     8.44498797   -10.35340377     1.73922286     1.09907541    -1.84709367
Mo     -5.77581646     0.15173838    -6.34072126     0.51822503     0.07898596     2.28330015
O      -1.89558187     1.88044694    -2.01654083    -0.64285155     0.82280189     0.34874635
O      -1.87437702     1.91803421    -6.05829696    -0.73937668     0.40215434     0.34733704
O      -6.02685665     6.83450546    -2.02466946     0.97281842    -0.53166925    -0.34245913
O      -5.95554911     7.02769633    -5.80827758    -0.04633348    -0.92215746    -0.33220639
O      -5.91976195     1.95409729    -9.99000336     0.74522446    -0.99000038     1.35232958
O      -5.92982910     2.07648899    -6.15196674     0.34057093    -1.11357189     0.56559288
O      -9.73960248     6.56939946   -10.00789116    -0.64539284     0.32233078    -0.75371518
O      -9.68867663     6.85892020    -5.80384546    -1.08689141     0.79712074    -1.02006954
O      -3.88276006     2.42538149    -3.86489666    -0.25517949    -0.56225563    -0.44435912
O      -4.03257623     2.41224001    -8.04398474     0.48098309     0.13728758     0.35274315
O      -7.86863237     2.47701652    -3.96084338     0.05251532    -1.08581985    -0.16167474
O      -7.84523389     2.53576153    -7.91894042     0.07189131    -0.22244942    -0.86878268
O      -4.01384979     6.24104608    -3.87800104     0.11073302     0.89831372    -0.56523143
O      -4.00958898     6.36354366    -7.85328269     1.33574290     0.18236875    -0.61684244
O      -7.88477778     6.36332516    -4.05032508     0.82947255    -0.31403361     0.74720314
O      -7.92878868     6.48816796    -8.01628374     0.36182823    -0.72783697     0.59317844
O      -3.79075175     4.53259057    -1.90601413    -0.34592851    -0.60836092     0.73761650
O      -3.86818543     4.19723979    -5.94776673    -0.22392062     0.50898083    -0.83587778
O      -7.79675867     4.30822842    -9.92495923    -0.28699980     0.76505861     0.12945658
O      -8.05409496     4.27021471    -5.99216306     0.80729136     1.42070431    -0.73987004
O      -8.00314806     8.69516723    -2.14415365    -0.67168293    -0.44010069     0.43628741
O      -3.99099620     0.15199205    -5.92109593    -1.14833169     0.16124733    -0.97466373
O     -11.64582038     8.72629914    -5.93559147     1.23019833    -0.35254351    -0.56619768
O     -11.58524704     8.51462911   -10.09063736    -0.77742845     0.98093073     0.46219565
O      -2.01668610     4.39114410    -4.01787901    -0.10809585    -0.32002339    -0.18322128
O      -1.93192827     4.16770040    -0.03688590    -1.42850560     0.00414821     0.44476391
O      -5.95215201     4.09054764    -3.89124817     0.46403943     0.14927733    -0.29947559
O      -5.96243004     4.84280638    -7.86061227     0.68648612    -1.13075963    -0.06340792
O      -1.74250479     0.46939734    -4.02367699    -0.48587135    -0.72101363    -1.01406846
O      -5.87817018     8.63148640    -8.04760536    -0.21355556    -0.32096007     0.31723347
O      -5.91198283     0.39454055    -4.13410494    -0.15380027    -0.10013636     0.84757932
O      -9.88663947     8.34850074    -8.03396914     0.22017156    -1.25385050    -0.86102145
