# total energy = -630.63114268 eV

CRYSTAL
PRIMVEC
        0.00279571     0.02951795    -7.98606283
       -7.83802570     0.01298533    -3.99532603
       -3.92160916     8.71933433     0.00634407
PRIMCOORD
56 1
Li     -3.91258533     2.22072597    -1.79832917    -0.25930391     0.16633348    -0.20325789
Li     -3.93382411     2.35644209    -5.85894443     0.16379172    -0.19680884    -0.76199744
Li     -7.85937378     2.48320264    -9.92002267     0.40490002    -0.17358400    -0.00457607
Li     -7.87480594     2.12528735    -5.77567077     0.01495188     0.10759437    -0.73555387
Li     -3.82487111     6.88423495    -2.01574347    -0.28852698    -0.19227856     0.02223234
Li     -3.88524537     6.32033858    -5.84102536    -0.09661828     0.08699348    -0.06315172
Li     -7.77767201     6.52559970   -10.19137449    -0.35178771     0.13530663     0.84486680
Li     -7.67476730     6.74125970    -6.03472457    -0.74897857    -0.30892416     0.30563588
Ti     -1.96727697     2.06795424    -4.08427507     1.21695246    -0.61563100     1.00318196
Ti     -5.76791030     6.52618406    -7.93679223    -0.31690684     0.46528204    -0.82518341
Ti     -7.86725861     4.47628824    -7.76475623     0.31328784    -0.87008906     0.24373943
Ti     -7.78406282     4.39127379    -3.76748867    -0.71997035     0.23642017     0.16001611
Ti     -3.81245492     4.32614862    -7.67779668     0.62056838     0.10756589    -0.68922936
Ti     -3.99364495     4.35009810    -3.67995856     0.29174268     0.86261367     0.54087539
Ti     -6.28633971     8.72006630    -1.92889297     0.70374461    -0.08544941    -1.16587179
Ni     -5.80660799     2.32684102    -7.94172103    -0.45778843    -0.75221007     0.16684781
Ni     -5.91048198     2.25433292    -4.04597341     0.41264436     0.38580749     0.66377694
Ni     -9.75004137     6.40605097    -7.85573701    -0.04408759     0.18547040    -1.06220799
Ni     -9.69092594     6.47402693    -4.16300420    -0.15778866    -0.31330899     1.05528619
Ni     -1.87329492     2.15998170    -7.95994824    -0.88362634     0.05811975     0.27333137
Ni     -5.87982893     6.59389739    -3.99018024     0.99036627     0.52425594    -0.69492234
Ni     -5.99588694     8.73149593    -6.07938451     1.47334220     0.28797271     0.40559833
Mo    -10.09226718     8.69780200   -10.24100668    -0.28072970     2.37085633    -0.10198050
Mo     -5.81864283     0.17669960    -6.36851347    -0.44392732     0.63375770    -1.43209251
O      -1.99468408     1.95857697    -1.91823650    -0.06971793    -0.88826423    -0.21521793
O      -1.87746107     1.83189040    -6.02398249    -0.86235533     0.90629107    -0.10001499
O      -5.74985345     6.80715860    -2.15863180    -0.91798570     0.62249794     0.83095053
O      -5.82459671     6.83820559    -6.03148828    -0.04953227     0.56361457     0.60896411
O      -5.77111088     1.84711041    -9.79275994    -0.94910644    -0.17505298     0.05839908
O      -5.79945029     2.08496367    -6.06764472    -0.97780495    -0.15688243     0.66846926
O      -9.85150278     6.93001274   -10.23947867    -0.08967334    -2.34243302     0.24228391
O      -9.65274558     6.98918531    -5.89094167    -0.60449323    -1.11336392    -0.51161366
O      -3.83271435     2.45827445    -4.05181497    -0.35049313    -1.31077218     0.41940298
O      -3.91880802     2.39317085    -7.79648514     0.41628340     0.24263898    -0.85715603
O      -7.85037232     2.41812298    -3.86512780     0.34191626    -0.03028085    -0.68466812
O      -7.79758244     2.40768960    -8.01026800    -0.18490763     0.93529189     0.23336603
O      -3.89716769     6.30619718    -3.92131988     0.41487532    -0.38967478     0.08346250
O      -3.83541307     6.30162179    -8.00663690     0.14571570     0.10976673    -0.33835113
O      -7.74357036     6.33673766    -4.12285317    -0.41470328     0.29583252     0.46582191
O      -7.75395702     6.45938078    -7.99798755    -0.72210022    -0.55502857     0.17638560
O      -4.16229685     4.07812437    -1.96408206     0.42391030     0.63981069     0.51821945
O      -3.97566244     4.34449421    -5.91488765     0.06522795     0.32809328    -0.53989835
O      -7.97393264     4.62364432    -9.98623742     0.34718068    -0.62646325    -0.03753352
O      -7.85165947     4.52120632    -6.02767523    -0.03204562    -0.28440159     0.26187511
O      -8.05732103     8.56652095   -10.02464591     1.57343028     0.67347719    -0.00456734
O      -3.98194499     0.13072985    -6.08600819     0.48320141    -0.08257640     0.00595588
O      -7.61705645     0.10143916    -6.10508560     0.86410134     0.34978802     0.12582465
O      -0.11329526     0.07896642    -6.12912142     0.72362623    -0.55387372     0.32835533
O      -1.96552946     4.27051773    -3.91202019    -0.58771181     0.77337801    -0.20820063
O      -9.71880281     4.45595171    -4.04460920    -1.62408103    -0.09545659    -0.25025249
O      -5.95704315     4.17773616    -3.99415024     1.50302417    -0.58426455    -0.40306266
O      -5.90165069     4.68795481    -7.95778199     1.00509570    -1.24700694    -0.16466335
O      -1.96165331     0.18105403    -3.92660094    -0.28294396     1.31211952     0.19719540
O      -5.79514961     8.46169273    -8.14254451    -0.24798439     0.46959813     0.55383190
O      -5.88382270     0.31550854    -4.02753750    -0.06096508     0.39534964    -0.25871684
O      -9.72848958     8.29235865    -8.16198173    -0.57476883    -0.37037686     0.90666696
