# total energy = -630.76398531 eV

CRYSTAL
PRIMVEC
        0.00279571     0.02951795    -7.98606283
       -7.83802570     0.01298533    -3.99532603
       -3.92160916     8.71933433     0.00634407
PRIMCOORD
56 1
Li     -3.91582581     2.24888366    -1.78701523     0.25265873     0.05117747    -0.52850186
Li     -4.00846564     2.28661690    -5.82291572     0.21226825    -0.17182151    -0.84882726
Li     -7.66577834     2.21364458    -9.92541550    -0.83390491     0.42625873    -0.30274485
Li     -7.83188338     2.17243953    -5.76417284     0.09078395     0.02072140    -0.63011651
Li     -3.78254474     6.68592707    -1.97097879    -0.22980195    -0.36199901    -0.07969943
Li     -4.07092200     6.48094244    -5.88794549     0.61118585     0.02187509     0.02677801
Li     -7.66888369     6.36611713   -10.03573398    -0.79680579     0.02165482     0.39800385
Li     -7.84826729     6.75506970    -5.93691589     0.06362750     0.09689606     0.23388723
Ti     -1.97056284     2.36757398    -4.11026182     0.85594610     0.11641741     0.61025555
Ti     -5.86852897     6.70666404    -8.00416651     0.48355776     0.63849179     0.16627079
Ti     -7.77562008     4.48782198    -7.65337315    -0.74299405    -0.39266952    -2.78175377
Ti     -7.83817722     4.39656432    -3.79727705    -1.58527884    -0.34259748     2.22822869
Ti     -3.98023112     4.39818585    -7.70006174     1.64294748    -0.17203080    -0.33706782
Ti     -4.10140279     4.34882579    -3.63389479     0.62691708     1.33470546     0.85229897
Ti     -6.01833807     8.71267661    -2.14353208    -0.32538848     1.00139369    -0.72505273
Ni     -5.85041475     2.31602693    -8.05718473    -0.18925863    -0.43142186     2.13326813
Ni     -5.86021577     2.20103501    -3.88834464    -0.23551091     0.71177687    -0.64378398
Ni     -9.85201043     6.36797673    -8.02570494    -0.01635955    -0.55657002    -0.49727148
Ni     -9.83491600     6.64344146    -4.07337324     0.39240072    -0.75446377     1.45490624
Ni     -1.91937201     2.15870702    -7.96683013    -0.05966295     0.75659525     0.67819400
Ni     -5.92014583     6.67032605    -3.98681774     0.01806527    -0.49191429     0.49235790
Ni     -2.00997253     0.02150677    -5.92243298     0.12099554     0.81799968     0.00510268
Mo     -9.86664193     8.60833727   -10.28888808    -1.15476265    -1.15069493    -0.42436975
Mo     -5.86421248     0.07340568    -6.41990704     0.65436581     0.18480759    -1.20261156
O      -1.95632943     1.90017202    -1.87243188     0.11508839    -0.65575366    -0.15568136
O      -1.93706769     1.95073216    -5.92625128    -0.31299204    -0.64996088    -1.32238916
O      -5.74333088     6.77971031    -1.94046829    -0.66532883     0.27867286    -0.74303027
O      -5.96871452     6.91432735    -5.85996030    -0.02466864    -0.27273432    -0.28246982
O      -5.85001797     1.74712366    -9.77587840     0.31274088     0.26486357    -0.69121243
O      -5.86286628     1.93390974    -6.15444415    -0.52267057     0.87241306     0.36531759
O      -9.82870775     6.70171918   -10.08876663     0.15147860     0.34602592    -0.43399418
O      -9.67621612     6.84410930    -5.90677371    -0.98188412     0.00164037    -0.38662159
O      -3.89621310     2.45873189    -3.91547715    -0.62849093    -1.02595676    -0.32508269
O      -3.92359314     2.43975841    -7.94729742    -0.52385061     0.01974710     0.59255479
O      -7.73405633     2.38595844    -3.90938766    -0.67610172    -0.44188796     0.21920000
O      -7.92844329     2.50179055    -8.05525152     1.50321432     0.01806516     0.64464583
O      -4.02370868     6.25803590    -3.97490827     0.50472665     0.62827025     0.42855314
O      -3.87105004     6.38462168    -7.99970866    -0.93623276     0.25616914     0.02477033
O      -7.99475151     6.32173393    -3.91954111     1.50386603     0.62790116    -0.95354605
O      -7.85555115     6.43784703    -8.07969325     0.51341151    -0.93496415     1.12348155
O      -3.74287153     4.28622182    -1.88669626    -0.98348471     0.34848589    -0.80699688
O      -3.80105458     4.56681906    -5.95357647    -0.58077392    -1.06995584     0.09728232
O      -7.78504484     4.41801246    -9.95607160     0.18236842    -0.31400726    -1.24318780
O      -7.74359124     4.18362359    -5.98261934    -0.00627655     0.25739959     1.87040167
O      -7.87557450     8.58259380    -2.08207038     0.57287129     0.16786404     0.00515080
O      -4.01514192     0.15082110    -6.19468129    -0.65641078    -0.51880869     0.52749751
O     -11.60761708     8.72250966    -6.14041000    -0.08019016     0.09600900     0.18991136
O     -11.66273374     8.56239219   -10.09757723     0.77042139     0.73919641     0.26776137
O      -2.00194069     4.31994184    -3.92006495     0.68185190     0.53878751    -0.36058825
O      -1.95802070     4.23205061    -7.95756004     0.57308998    -0.71942895    -0.31285193
O      -5.92820015     4.22485482    -3.97605372     0.53741128    -0.85542450    -0.01929965
O      -5.87006803     4.62492656    -8.01016538    -0.21065558     0.42573432     0.40029235
O      -1.95879186     0.35715292    -4.02966893    -0.15698057    -0.41656489     0.87452365
O      -5.83208154     8.58179516    -7.83928873    -0.08562283    -0.32587002    -1.17763847
O      -5.88606963     0.27106405    -4.12091743     0.39714561     0.27507691     0.32306044
O      -9.79737946     8.16842354    -8.19227389    -0.09151709     0.59157257     1.07701026
