# total energy = -630.63912635 eV

CRYSTAL
PRIMVEC
        0.00285542     0.02004370    -7.95977623
       -7.82940539     0.00763210    -3.98158109
       -3.91729101     8.74642787     0.01461334
PRIMCOORD
56 1
Li     -3.86034331     2.20330012    -1.88373842    -0.42013975     0.05711475    -0.42952687
Li     -3.99322246     2.18095174    -5.86175184     0.08495175    -0.18438536    -0.31646034
Li     -7.99380761     1.99519254    -9.87998310     0.56728443     0.09293588    -0.37257981
Li     -7.87580647     2.31384539    -5.84231063     0.31455389    -0.33553085     0.00766018
Li     -3.98787796     6.51237719    -2.03988148     0.50661741     0.02388356     0.75546071
Li     -3.80506716     6.37745555    -5.88481793    -0.29214528     0.48024402     0.17014651
Li     -7.90634569     6.43108510    -9.81520896     0.24685661     0.37426151    -0.49195477
Li     -7.76599570     6.46650112    -5.85898676    -0.32279174    -0.03732325     0.24613384
Ti     -2.05633572     2.35607877    -3.95216263    -0.07433254    -1.28485495    -0.94728957
Ti     -5.90174586     6.65044222    -7.95912596     1.68746418     2.22756295     0.05819226
Ti     -7.66157031     4.31143109    -7.72858045    -1.23062344    -0.52435081    -0.02793760
Ti     -7.83617828     4.41391210    -3.70609200    -0.10147846    -0.33306870    -0.20750776
Ti     -3.87527378     4.34459903    -7.65308783     1.87932332     0.42478798    -2.42508772
Ti     -3.87433230     4.50850586    -3.79320394    -1.71850240     0.15110867     1.92123922
Ti     -5.97527579     8.69201290    -2.18183365    -1.02115318     0.23433364     0.63863424
Ni     -5.79565443     2.26439795    -8.05786107    -0.85082959    -0.21160174     0.06364922
Ni     -5.85594480     2.20841296    -3.97817669    -1.44369635    -0.28681706     0.56971909
Ni     -9.63683647     6.64404693    -7.79949403    -0.60638363    -0.10796234    -0.11591044
Ni     -9.82308137     6.62371327    -3.98188135     0.62643864    -0.79227541    -0.18058122
Ni     -2.03288798     2.07916849    -7.94353069     0.79507125     0.20593187     0.55672330
Ni     -5.92528728     6.62197788    -4.04450273     1.09439322     0.70868103     1.05313557
Ni     -6.07049851     8.69167232    -6.03205112     0.93528109     0.75142827     0.77267681
Mo     -9.87736525     8.68597271   -10.21560228     1.27179234     0.11733156    -0.52644019
Mo     -5.89092911     0.01964148    -6.30192391    -0.18635910    -0.31173614    -0.96072542
O      -1.90484388     1.91110374    -2.13880804    -0.34556898    -0.04648193     1.43332872
O      -2.08176211     1.81065284    -5.92999556     0.13382114    -0.31312371    -0.64588041
O      -5.88496061     6.82653996    -1.98100197     0.26082458    -1.00920655    -0.21337281
O      -5.89468993     6.85697295    -5.97789754    -0.12841140    -0.24702404     0.02783502
O      -5.84196539     1.88605400   -10.05419632    -0.22449222     0.78243421    -0.45532136
O      -5.86154175     1.88500105    -5.85417577    -0.52209543     1.04198689     0.45978811
O      -9.75436726     6.87165623    -9.61439978     0.16767167     0.26589362    -1.02035919
O      -9.64960120     6.86841081    -5.99138195    -0.50422968    -0.66787335     0.79223039
O      -4.03444988     2.37815687    -3.91084862     1.92505739     0.65341516    -0.59986960
O      -3.89140760     2.38284788    -7.95656878     0.12603747     0.68405582     0.37855968
O      -7.95663943     2.40001602    -3.85894734     0.58251996     0.59398612    -0.26011616
O      -7.80982786     2.40327950    -7.95229054    -0.14794651     0.03107683    -0.70388535
O      -3.66331303     6.43115516    -3.86138395    -0.77724307    -0.38154932    -0.56133741
O      -3.96728752     6.44581026    -7.90588330     0.08966274    -1.21413084    -0.15147972
O      -7.74714894     6.46916866    -3.84281186    -2.09184602    -0.83144166    -0.99395180
O      -7.73731972     6.32853082    -7.86933623    -1.22114822    -0.55072526     0.09779269
O      -3.78813652     4.28442665    -2.03138688    -0.39316752     0.36576542    -0.56701787
O      -3.87638707     4.39653745    -5.93515982    -0.15679793    -0.20208898     1.60291770
O      -7.82605753     4.55786632    -9.93118945    -0.44341716    -0.69950547     1.00634643
O      -7.91086427     4.21163575    -5.99421367     0.29565427     1.11359594     0.27486126
O      -3.96028222     0.03949876    -9.96917268     0.11688105    -0.05760251    -0.37879787
O      -4.06670963     0.08391153    -6.04084407     0.08179089    -0.40682994    -0.31898627
O     -11.63717533     8.71836206    -5.96398291     0.16598245    -0.10734844    -0.34002363
O     -11.62322075     8.72632049   -10.08717371    -1.07068630    -0.00397335     0.18862933
O      -1.97612479     4.17546226    -4.08051742     0.96935854    -0.21463492    -0.15140025
O      -9.81372078     4.65665279    -4.05376900     0.19493632     0.58610857     0.52732276
O      -5.88600719     4.76393025    -3.88215435     0.31319550    -0.48277418    -0.95450047
O      -5.79584415     4.29608317    -7.93826961    -0.06549161     0.24302073    -0.33101326
O      -1.98995206     0.03239709    -4.01260998     0.20229347    -0.20749390    -0.95908072
O      -6.06191779     8.51039166    -8.05009200     0.65434671    -0.36554926     0.69587473
O      -9.77240574     8.54699013    -4.10941124     0.09260605    -0.41772905     1.09965563
O      -5.90247956     0.43248600    -8.16394976     0.11629168     0.54910914     1.30753911
