# total energy = -630.34370620 eV

CRYSTAL
PRIMVEC
        0.00279571     0.02951795    -7.98606283
       -7.83802570     0.01298533    -3.99532603
       -3.92160916     8.71933433     0.00634407
PRIMCOORD
56 1
Li     -3.82264465     2.14344190    -1.89262112    -0.44515671     0.15440658     0.04854526
Li     -3.93789134     2.28186488    -5.98530530    -0.70243411    -0.19777034     0.03279822
Li     -7.80155697     2.04070604   -10.02781967    -0.39971269     0.59184188     0.43675157
Li     -8.12109886     2.12868992    -5.74217507     2.28300792     0.46708495    -0.10795552
Li     -3.72401349     6.48380348    -1.86812931    -0.97323680    -0.26017539    -0.36190196
Li     -3.87272402     6.27595184    -5.93302931     0.33808310     0.12654242     0.00019365
Li     -7.84844554     6.53047327    -9.91737499    -0.06870619    -0.09784397    -0.03108935
Li     -7.74372637     6.41871743    -5.85105985     0.19380712     0.24452182    -1.01318313
Ti     -1.99169160     2.21034883    -4.04320976    -0.40086124     1.00472030    -0.16438957
Ti     -5.79387674     6.70678321    -7.97377878    -0.98262218     0.97261294     0.87111910
Ti     -7.83695976     4.36612744    -7.75612823     0.30399791     0.60828445     1.01338573
Ti     -7.82242925     4.41037988    -3.74553208     0.77580666    -0.99647357     0.48997413
Ti     -3.95290692     4.29898234    -7.78875821     0.42598658     1.19256237     0.34251874
Ti     -4.00921737     4.41006369    -3.71555487     0.01549288    -0.82642633    -0.02541577
Ti     -6.06997793     8.64934125    -2.22158860     0.30509919    -0.00365244     1.44818285
Ni     -5.96355781     2.45993717    -8.04214403     0.05773739    -1.29502580     0.64476082
Ni     -5.88293643     2.21735642    -3.91887515    -0.21460850     0.08074465    -2.60448842
Ni     -9.78725342     6.46337436    -7.96130489     0.44114505     0.39243532     1.29801991
Ni     -9.65133648     6.25634606    -4.15837745    -0.50216752    -0.06942192    -0.15899477
Ni     -2.01089927     2.27103503    -7.89458724     0.31504933    -0.11728670    -0.31272781
Ni     -5.76466488     6.57492071    -3.89477969    -0.29682356     0.06817088    -0.97196463
Ni     -1.91290310     0.03857555    -5.99107025    -0.31499224    -1.83035627    -0.19046792
Mo     -5.95339672     0.12432940   -10.29899751    -0.16339873     0.16741257     2.68887337
Mo     -9.91198207     8.68991623    -6.29821073     2.15485374     1.34775322    -1.87909396
O      -1.94844980     1.82643063    -1.95218906    -0.84801675     0.31863918    -0.37923180
O      -1.97886492     1.87903157    -5.99401128    -0.13597379    -0.04249852     0.07083057
O      -5.87804244     6.72107444    -1.96084453     0.11478101     0.20389743    -0.61540867
O      -5.62414143     6.81128600    -5.89946807    -1.51599947     1.10715338    -0.22205588
O      -5.82048412     2.13849289   -10.02480703    -0.21772424    -0.84801137     0.59587355
O      -6.06914944     2.07665016    -6.02346458     0.44732898    -1.46346151     0.68436641
O      -9.77876173     7.13430175    -9.70354484     0.30179023    -1.42748631    -0.72862947
O      -9.77620910     6.68913798    -6.05976085     0.57253967     0.57320649     0.41738895
O      -3.93260533     2.26965834    -4.00280079     1.04488195     1.08098669     0.31578191
O      -4.03434571     2.47167877    -7.92918675     0.74101206    -1.91604846    -0.65097079
O      -7.88169412     2.34793101    -3.84610983    -0.04797322     0.92183121    -0.55034093
O      -7.89668686     2.46558060    -8.01569245     0.19147138    -0.82467850    -0.38717759
O      -3.84050196     6.30487294    -3.96790200     0.05201033    -0.01547840     0.19243578
O      -3.93231706     6.25305666    -8.00963411     0.90467344     0.91734506     0.30182326
O      -7.71400892     6.41015209    -4.07209306    -0.31464704    -0.66778464     1.24043282
O      -7.71763522     6.28692832    -7.97470006    -0.52573484     0.85945146     0.34508017
O      -3.78341001     4.38105500    -1.96578181    -0.25859652    -0.29077690    -0.75034232
O      -4.00423206     4.32974739    -6.02467723     0.98917034     0.27975173     0.76748458
O      -7.91634192     4.56973777    -9.95910856     0.17879081     0.01847922    -0.95830963
O      -7.82436914     4.44631748    -5.98509985    -0.18276779    -0.04138939    -0.22003489
O      -3.95008879     0.08820648    -2.01321730    -0.34235084    -0.28064209    -0.27010694
O      -8.08190878     8.71409419    -6.16907206    -0.67789990    -0.10881145     0.49567411
O      -3.83260033     8.51491878    -1.86748890    -0.47810960     0.29758554    -0.11692051
O      -7.71901180     0.09350578   -10.18384075     0.00500017     0.37320789    -0.20953516
O      -1.91704997     4.18728983    -4.04007276    -1.51532819    -0.75852205    -0.07688269
O      -9.72883420     4.33750950    -4.07812753    -0.69311526    -0.20929791     0.18824674
O      -5.85836956     4.02037271    -4.04003060    -0.30053017     1.09752985     0.56084487
O      -5.86502213     4.34549721    -8.03968992    -0.43641267     0.26910346    -0.28726807
O      -1.87724884     0.20824963    -4.02300755     0.07335601     0.34675992    -0.85725479
O      -6.03258368     8.55598526    -7.95022506     0.87563125    -0.87751458     0.17615028
O      -5.73437409     0.32806411    -4.05936962    -0.41705057    -0.47577018    -1.45061288
O      -6.11559969     0.59456029    -8.10278233     0.42155813    -0.14570553     0.85300956
