# total energy = -630.89813823 eV

CRYSTAL
PRIMVEC
        0.00279571     0.02951795    -7.98606283
       -7.83802570     0.01298533    -3.99532603
       -3.92160916     8.71933433     0.00634407
PRIMCOORD
56 1
Li     -3.85402334     2.49733128    -2.00556784    -0.22877274    -0.50527401     0.20414141
Li     -3.92548215     2.42451685    -5.90810752    -0.26036253    -0.23224061    -0.05145999
Li     -7.95293573     2.64922264    -9.89405911     0.46590224    -0.72032847    -0.35903165
Li     -7.89911345     2.39453550    -5.84074561    -0.12954151    -0.36036103    -0.15186202
Li     -3.95425155     6.70100182    -1.98676978     0.33727848    -0.07355295    -0.14287923
Li     -3.88061819     6.43036873    -5.85240988    -0.09707079     0.12456138     0.06016234
Li     -7.87126594     6.40503799   -10.10795111    -0.46168248     0.24672130     0.90758582
Li     -7.81240453     6.78821452    -5.93773551    -0.01788454    -0.31469087     0.03106202
Ti     -1.90161657     2.21901600    -4.02835794    -1.00318463     1.28206591     0.93059380
Ti     -5.78003467     6.66021150    -7.94549084    -1.34990192     1.11888364     0.14238142
Ti     -7.63333432     4.33410944    -7.69997046    -1.55862471     1.37215124    -0.34276265
Ti     -7.75101473     4.35462458    -3.76805151    -0.39046572     0.89511647    -0.31514324
Ti     -3.76278709     4.43850640    -7.76531002     0.65705856    -0.65729099    -0.60111606
Ti     -3.99776308     4.48143331    -3.73526935     0.82718796    -0.94812738     0.38307063
Ti     -6.25519834     8.65216981    -2.18746384     0.36176100     1.22178685     1.67914662
Ni     -5.77812566     2.25599690    -8.05393775     0.24260753     1.17802537    -0.26095065
Ni     -5.91439056     2.03993800    -3.95844729     0.14237967     0.54483753     0.33079369
Ni     -9.78663094     6.46631006    -7.87128886     0.88602877     0.44302233    -0.56745743
Ni     -9.74307999     6.42516411    -4.08067607     0.24785067     0.30222315    -0.32538481
Ni     -2.03108221     2.01607273    -7.88665101     0.89445499     0.36723794    -0.85410559
Ni     -5.92108258     6.60254544    -3.94166276     0.52698372     0.02673640    -0.95535665
Ni     -2.03528493     0.08818306    -5.99591154     0.52518204    -0.00029960     0.40307002
Mo     -9.96900748     8.73486007   -10.31243133    -1.84068857    -0.19904557    -0.76071054
Mo     -5.90380547     0.08245459    -6.32136119    -0.71336355    -1.77635535    -1.20221333
O      -2.00975637     1.87501470    -1.87715504     0.20628716    -0.82234401    -0.40095390
O      -2.00638630     1.95440578    -5.94531993     0.18375249    -0.32144904    -0.84277077
O      -5.95545800     6.77413071    -2.04457307     0.33191847     0.06206787     0.58211366
O      -5.82118363     7.01495348    -5.91268482    -0.18168684    -1.27660854    -0.72965935
O      -5.95450646     1.93352271   -10.04824008     0.52449996     0.70220123    -0.41953734
O      -5.91306309     1.87072219    -5.86655592     0.02988137     2.03097367     1.08004048
O      -9.84605978     6.81996550    -9.83252753     0.01538194     0.84436377     0.22738034
O      -9.75971010     6.79535043    -6.03590496    -0.04136660    -0.06377681    -0.07562505
O      -3.89247698     2.50289220    -3.96239021    -0.57680674    -0.85614614    -0.08286176
O      -3.82375515     2.49475724    -8.05500266    -0.91673665    -0.38000407     0.64208071
O      -7.81405651     2.46727874    -3.96400698    -0.20061054    -0.90653195     0.48116602
O      -7.75834551     2.40831564    -7.90671331    -0.24256586    -0.51011161    -0.57991359
O      -3.80372503     6.37689883    -3.92256860    -0.37294244     0.19733855    -0.06272971
O      -3.89428390     6.38902231    -8.05697014    -0.34314982    -0.26441436     0.57141771
O      -7.80560281     6.40211050    -4.03357264    -0.43194271    -0.52196655     0.00518953
O      -7.75836681     6.28975429    -7.93417235     0.04062670     0.60095451     0.07902598
O      -3.92911188     4.32314978    -1.98128481     0.02729968     0.69663768    -0.18445632
O      -3.81876955     4.36665439    -6.01030340    -0.48297615     0.35634701     0.49791926
O      -7.89139683     4.54982026    -9.97278509     0.14503128    -0.96193587    -0.13785538
O      -7.99349424     4.43083259    -5.99859267     0.81391263    -0.36738749     0.84376070
O      -8.10229350     8.67019391    -2.22586538     1.81513596     0.13098546     0.71288419
O      -4.10501779     0.06904858    -6.00907072     1.68950634    -0.34295328    -0.17945705
O     -11.63030253     8.67754920    -6.10644231     0.05305306    -0.00241971    -0.33047407
O      -7.85160719     0.11071877   -10.08863502     0.52596068    -0.36664983     0.06722129
O      -1.92103262     4.09867041    -3.97494804    -0.04561511    -0.36881705    -0.30382420
O      -9.70211491     4.58470046    -3.99932918    -0.80819477     0.04641715    -0.24811108
O      -5.87640048     4.61421331    -4.00256438     0.16518004     0.24692112    -0.35414475
O      -5.79528507     4.45207525    -8.04574214     0.60745997    -0.34404270     0.51676415
O      -2.15765213     0.21166587    -3.97114715     0.80360828     0.14789349    -1.03989012
O      -5.81602518     8.52071202    -8.07069926    -0.57450257    -0.61049742    -0.29429527
O      -9.83709388     8.28229038    -4.15900445    -0.38642139     0.37428983     1.63813758
O      -5.73069980     0.47085226    -8.16348931    -0.58073970    -0.65171032     0.30424421
