# total energy = -630.51253355 eV

CRYSTAL
PRIMVEC
        0.00279571     0.02951795    -7.98606283
       -7.83802570     0.01298533    -3.99532603
       -3.92160916     8.71933433     0.00634407
PRIMCOORD
56 1
Li     -3.96909267     2.35736935    -1.93280381    -0.08728842     0.21412186     0.13876391
Li     -4.06392897     2.53381092    -5.92520041     0.23249894    -0.69748644    -0.12887683
Li     -7.72240368     2.29064659   -10.02058876    -0.06791871    -0.08526262     0.57959334
Li     -7.93706760     2.34334799    -5.91157225     0.02977639    -0.12693677    -0.14016500
Li     -3.95007720     6.41303352    -1.92858411     0.51080145    -0.03898887     0.20255296
Li     -4.05744842     6.51461390    -5.88857140     0.75423801     0.16572970    -0.31109031
Li     -7.85504500     6.49779044    -9.87794713    -0.02693504    -0.34929270    -0.23731432
Li     -7.77804982     6.68365034    -5.93073335    -0.32492491    -0.43042474     0.11984468
Ti     -2.04924849     2.35560536    -4.13206819     0.14807755     0.70646290     1.79177351
Ti     -5.91264250     6.76653916    -7.97738032     0.33039734    -0.17822670     0.02769005
Ti     -7.78448754     4.45451696    -7.71036829     0.03542405    -0.25004467    -0.33818367
Ti     -8.05862164     4.40406342    -3.74877248     0.83598980    -0.68572363     1.75344551
Ti     -3.95821093     4.39144365    -7.70199624     0.10603366    -0.00356997    -1.17362484
Ti     -4.15006082     4.47226074    -3.73767624    -1.16338884    -1.03407604    -0.46482608
Ti     -1.76351634     0.06404246    -2.12911511     0.51408715     0.23691433     0.67649367
Ni     -5.79645275     2.23318539    -7.87268168    -1.36722766    -0.67627679    -0.42871357
Ni     -6.02532387     2.33978444    -4.12192042     0.45497189    -0.34471102     1.20282464
Ni     -9.91119497     6.32968494    -8.06696270     0.52451418     0.26884473     0.00511296
Ni     -9.74362087     6.57694898    -3.91908455    -0.85216398     0.12352950    -1.07367251
Ni     -1.91989827     2.11376146    -7.94602780    -1.37697064    -0.49859884    -0.08921379
Ni     -5.94386177     6.64276769    -3.93346394     0.24744700    -0.07861576    -0.41992889
Ni     -1.81778512     0.02530983    -6.00061517    -0.05980549    -0.21933534     0.34452926
Mo     -9.71763849     8.67956520   -10.33190363    -3.09220366     1.34364047    -0.29902328
Mo     -9.67698952     8.71473146    -6.36449889     0.44606908     0.44384124     1.84891769
O      -2.10299565     1.98200395    -2.02680384     0.24494183    -0.85949260    -0.47900645
O      -1.89319736     1.88801666    -5.90777323    -0.47526082    -0.62377291    -0.93448283
O      -5.85474466     6.78756777    -1.91072402    -0.02636130     0.32111690    -0.85932177
O      -5.84733857     6.90857021    -6.05439512    -0.44413811     0.19482597     1.24574977
O      -5.84580911     1.85624311    -9.82766732     0.49785071    -0.39897235     0.38148597
O      -5.91221367     1.90437609    -5.97090785     0.21853238     0.36984233    -1.48286391
O      -9.92501643     6.77032930   -10.04587040     0.75570023    -1.09994025     0.08288260
O      -9.81439714     6.77771324    -5.91987352    -0.18214174     0.67720725     0.91998461
O      -4.11612118     2.51154161    -4.00374107     1.57698227    -0.77704195    -0.32080557
O      -3.97552053     2.34170209    -7.89912857     0.23640111     0.61799567     0.06589645
O      -7.89004245     2.39662921    -3.95332517     0.64412420     0.00262943    -0.52688181
O      -7.96938284     2.47355560    -7.96695833     0.27959028     0.34668488     0.46084411
O      -3.94241557     6.31539902    -4.05869273    -0.95326316     0.83551961     0.72205862
O      -3.89251453     6.32898605    -7.80723450     0.11594746     0.45666196    -1.44734897
O      -7.84199832     6.25247598    -4.00044248    -0.40765640     1.60927826     0.24771991
O      -7.86174870     6.42006260    -7.93155502    -0.05361879    -0.62344952    -0.13842585
O      -3.90143374     4.39675522    -2.01992584    -0.24291455     0.13039160     1.40510523
O      -3.79004011     4.36386437    -5.97244768    -0.63309588     0.02912404     0.59364130
O      -7.85059864     4.37351013    -9.90031399    -0.24315098     0.25671702    -1.24303154
O      -7.77962754     4.42060962    -5.94484626    -0.41110605    -0.33067095    -0.85379074
O      -8.02404826     8.45531795    -9.97849809     1.62771165     0.81617801     0.18780775
O      -7.89778062     8.69041672    -6.23681113    -0.67719270     0.43227527     0.42328838
O      -7.80302433     0.19022416    -5.94437442     0.34248606    -0.64827764    -0.57953305
O     -11.60264962     8.72102968    -9.95839242    -0.04116812    -0.03495587    -0.54921557
O      -2.16252194     4.36041961    -4.00856365     2.15924591    -0.87052577    -0.09732211
O      -2.01466393     3.94344685    -7.98903603    -0.32144541     0.64351615    -0.25109342
O      -6.05395042     4.25760969    -4.09501839     0.67680881    -0.13801413     0.27003211
O      -5.86937762     4.64103661    -8.02201283    -0.33913216     0.16854410     0.46823428
O      -1.91185804     0.07841064    -3.94577553    -0.68512236     0.73993750    -1.20023254
O      -5.88658807     8.68750028    -8.02343488     0.15943485     0.08586730     0.08390365
O      -5.82891620     0.22866330    -4.16937050     0.06704979     0.22605891     0.85542924
O      -9.95055291     8.17801477    -8.02463130     0.00815056    -0.22678740    -1.01701655
