# total energy = -630.18367282 eV

CRYSTAL
PRIMVEC
        0.00279571     0.02951795    -7.98606283
       -7.83802570     0.01298533    -3.99532603
       -3.92160916     8.71933433     0.00634407
PRIMCOORD
56 1
Li     -3.85426177     2.46987757    -1.79064759    -0.49892536    -0.60154661    -0.62675164
Li     -3.87955880     2.44240901    -6.12383545    -0.05756893    -0.09066695     0.52296396
Li     -7.77663262     2.46892550    -9.96712183    -0.01340348    -0.17187020     0.00437373
Li     -7.70007760     2.18003803    -5.83199633    -0.56652965     0.18078073    -0.27306534
Li     -3.97414242     6.87439104    -1.99735020     0.61130858    -0.39457265    -0.30306845
Li     -4.07332401     6.42781241    -6.00068147     0.46980249     0.02365647     0.28001926
Li     -7.83099918     6.49462522    -9.97918343    -0.60654202     0.01544230    -0.11165130
Li     -7.83386112     6.59216971    -5.92957190     0.11774228     0.03789091    -0.03410408
Ti     -1.96793026     2.01312752    -4.16352101    -0.23377989    -0.30366015     0.81792582
Ti     -5.81045077     6.46980399    -8.08589969    -0.59135505     0.81992181     1.32023323
Ti     -7.98263719     4.42587157    -7.77005360     0.63345659     0.41626925     0.20570338
Ti     -7.83339056     4.30488282    -3.79395585     0.05149046     0.18890188    -0.76237102
Ti     -3.73284946     4.38441124    -7.91178374    -0.02091983     0.22883639     0.07653775
Ti     -4.05494630     4.43233978    -3.68869744     0.13802791     0.12288768    -0.49449619
Ti     -2.27597525     0.07176073    -1.96716561    -0.55712159    -1.25404998     0.65931812
Ni     -5.98252660     2.17469155    -7.76840806     1.43685227     0.77685478    -1.08865449
Ni     -5.70956726     2.21415366    -4.08016340    -0.82272499    -0.25927508     0.72150621
Ni     -9.80462591     6.34190325    -8.13350596    -0.18236619     2.07915448     0.01682306
Ni     -9.73888637     6.70220774    -4.04108992    -0.50199856    -0.22298986     0.89583217
Ni     -1.95598450     2.09952713    -8.06986847     0.35063001    -1.05262207     0.65178668
Ni     -5.92899884     6.56525520    -3.87733491    -0.16233682     0.15443703    -1.57220621
Ni     -1.91733378     0.11768346    -5.89248555    -1.79556929    -2.33645613    -1.85236325
Mo     -6.05995827     0.10770657   -10.09629545    -0.62353985     0.04290008    -1.57062012
Mo     -5.83976720     0.05053823    -6.34930059     4.15803534    -0.34698503    -0.52049546
O      -1.99124015     1.83500817    -1.98354508     0.90293024     3.05005797    -0.13729814
O      -2.04449479     1.95745362    -6.06353432     1.13411980     0.83236873     0.59561293
O      -5.89631869     6.89119820    -2.01122579     0.28367141    -1.40392419    -0.22187765
O      -5.98770131     6.95646005    -6.05054007     1.43593900     0.03339732     0.52926500
O      -5.96678829     1.89756351    -9.55096008     0.43772949    -0.35765612    -0.79022025
O      -5.74299185     1.96869610    -6.00614417    -0.67464876     0.04269247     0.87332356
O      -9.88611438     6.81790039   -10.20514913     0.06849254     0.69412327     0.82142677
O      -9.74398931     6.91322311    -5.81241541     0.12143161    -0.13617763    -0.99652616
O      -3.83205751     2.48449578    -3.84478835     0.63924500    -0.90833539    -1.00360514
O      -4.05387612     2.42346327    -7.93448889    -0.41501957     0.26592124    -0.27495210
O      -7.56786869     2.32949038    -3.96116793    -1.03284006     0.37133082     0.05777609
O      -7.90848634     2.44382278    -7.92768181    -0.39632932     0.08725359    -0.11048496
O      -3.96919296     6.30562756    -3.95299462    -0.17136467     0.56594964    -0.28084376
O      -3.87547915     6.48381517    -8.11991787    -0.32672425    -0.69490081     0.55622652
O      -7.85786922     6.25780170    -3.95140081     0.61877661     0.65282137    -0.34167194
O      -7.86619068     6.34927955    -7.94402691     0.00905658     0.00099450    -0.93530002
O      -4.08317242     4.30240141    -1.95345505     0.29176980     0.49547977     0.51012541
O      -3.61826513     4.46752738    -6.18167584    -0.99607810    -0.06996535     0.67478014
O      -7.85009580     4.52382756   -10.02047680     0.28092534    -0.93835168     0.58865142
O      -7.72491926     4.47620830    -6.05063039    -0.30370337    -0.36357063     0.43499142
O      -7.96966576     8.67411037    -2.07672082    -1.19245086     0.22889964    -0.01458214
O      -3.85606477     0.08157186    -6.05228168    -1.14744608     0.14339500     0.05694386
O      -7.54441647     0.04802914    -6.14736164    -2.16600800     0.67150938     0.33660336
O      -7.86627313     0.13648396    -9.81328298     0.77767906    -0.41085157    -0.85350830
O      -2.08561482     4.52348316    -4.11350338     0.94328923    -1.33282713     0.76099666
O      -1.84831582     3.94560021    -0.24901887    -0.30110608    -0.40601595     0.24139755
O      -5.85919418     4.03532169    -4.15163897     0.19155477     1.09500312     0.09041186
O      -5.86112438     4.65213749    -8.01093580     0.09007200     0.08732481    -0.00180820
O      -1.89710131     0.20051117    -3.92463690    -0.15879008     0.57232446     0.03927869
O      -5.88183190     8.67639185    -8.11684091     0.36261790     0.57253451     0.53256199
O      -5.91911142     0.33451838    -3.97111540     0.29511415    -0.43489519     0.66146589
O      -9.70743830     8.23907705    -8.15900991    -0.08511822    -1.04668140     0.75747515
