# total energy = -630.50189058 eV

CRYSTAL
PRIMVEC
        0.00279571     0.02951795    -7.98606283
       -7.83802570     0.01298533    -3.99532603
       -3.92160916     8.71933433     0.00634407
PRIMCOORD
56 1
Li     -3.87051870     2.30971997    -2.09061173     0.22761349     0.10640218     0.54907173
Li     -4.04141933     2.00750064    -6.00330509    -0.18472401     0.53335048    -0.32929828
Li     -7.63621756     2.53074191   -10.06544597    -0.33155059    -0.50795773     0.16593146
Li     -7.74836952     2.47159874    -5.90250126    -0.70006170    -0.44275290    -0.09624626
Li     -4.04431431     6.57050076    -1.86573101     0.73920290    -0.40784794    -0.44926571
Li     -3.88617485     6.29780250    -5.82853319    -0.04694799     0.21358574    -0.32678383
Li     -8.00879964     6.56522371    -9.98156729     0.82808606    -0.21182649     0.32595243
Li     -7.72554952     6.56711629    -5.85482864    -0.81587173    -0.11270874     0.19356765
Ti     -1.96653365     2.03791858    -4.16058110    -0.38940565     1.27813280     0.82366635
Ti     -5.88378831     6.55352063    -7.95429597     1.48436967     0.30688018    -0.04352424
Ti     -7.79969259     4.40251302    -7.69343432    -0.88892056    -1.59320280     0.19412772
Ti     -7.73398406     4.47370996    -3.77351336    -0.57915618    -0.16232844    -0.77175047
Ti     -3.79089442     4.28737814    -7.71783095     0.03979979     0.02082742    -0.15171449
Ti     -3.97931372     4.49673362    -3.72914069     0.97845648    -1.27742884     0.04982519
Ti     -6.11405213     8.63900997    -1.95119516     1.41760663     0.82497432    -0.00257399
Ni     -5.82755005     2.47942965    -8.14306768    -0.12767588    -1.05674729     0.86759643
Ni     -5.81068164     2.27431446    -4.08290536    -1.27416229    -1.11646542     0.54767309
Ni     -9.69901805     6.55966325    -7.83656309    -0.90965540     0.18010775    -0.39045721
Ni     -9.81790196     6.49169206    -4.00438710    -0.24313077    -0.37172352     0.03763256
Ni     -1.82754762     2.05861028    -7.99821007    -1.08737774     0.03051068    -0.39039091
Ni     -5.92603223     6.70508436    -3.98418409     0.71379624     0.71338044     0.62406764
Ni     -6.08512442     8.69045676    -5.98343851     0.99514501    -1.10583611    -0.51425139
Mo     -5.98219226     0.11099787   -10.27946141    -1.70458238    -1.08979937    -0.62490368
Mo     -9.86985046     8.66920761    -6.30804488    -0.83453661     0.76452522    -1.33354995
O      -1.97314184     1.81747939    -2.08637395     0.86647613     0.30248330     0.40961093
O      -2.17130380     1.76642928    -6.14306918     1.09276688     0.51459937     0.85744175
O      -5.92687896     6.69119874    -1.96815574    -0.15831516     0.32682611     0.24670220
O      -5.88247845     6.80612625    -5.81799397    -0.00703008     1.32140907    -1.58694911
O      -5.75256518     1.97489905   -10.16382812     0.01476243     0.73607896     0.03627762
O      -5.99314585     1.98211070    -5.87503603     1.00056791    -1.15752473    -0.41781647
O      -9.76300357     6.91656254    -9.77977443    -0.62504980     0.42426936     0.42916346
O      -9.73873984     6.73500445    -5.96734498    -0.06278014    -0.18054623    -0.10700795
O      -3.96709140     2.32648682    -4.04510210     0.65582512     0.10416103     0.04618054
O      -3.90319205     2.39078118    -8.06510678     0.15732700     0.41802946    -0.08807335
O      -7.79880112     2.39524190    -3.99456747     0.46337900     1.29670164     0.36341198
O      -7.75925235     2.52534147    -8.11554573    -0.29846754    -0.82841113     0.03158580
O      -3.73769583     6.37339147    -3.94842775     0.35642929     0.12361363     0.28690755
O      -3.99496321     6.30148632    -7.96028870     0.56804790     0.33150987     0.54242974
O      -7.88495741     6.50665090    -3.87916489    -0.49994060    -1.14590395    -0.71232118
O      -7.77863972     6.25577031    -7.81369149    -1.07355236     1.94895192    -0.93421236
O      -3.99039758     4.40107852    -1.95944734    -0.30928434    -0.39825384    -0.88236152
O      -3.96590481     4.22401531    -5.97392656     0.18541286     0.47533912     0.51959146
O      -7.79894471     4.39450234   -10.00982874    -0.16316720     0.41402116     0.22903478
O      -7.91951410     4.37103701    -5.94111186    -0.02065938    -0.04977691     0.04971081
O      -7.85810747     8.68391105    -9.93373974    -1.70934984     0.17900579    -0.24363778
O      -8.05800702     8.67296723    -6.20252087     1.38345992    -0.01738722     1.05309970
O     -11.63452874     8.50182470    -6.00842165    -0.41472169     0.55821393    -0.12633840
O      -7.73744049     0.16142846   -10.07619991     0.89738273    -0.12135472     0.04198685
O      -2.06603533     3.92363024    -3.99153524     1.25834162     0.51620303    -0.17936454
O      -9.81534484     4.60210225    -4.00110465     1.65731721     0.32572720     0.11861443
O      -5.84908871     4.91037318    -4.16966187    -0.82706635    -1.15632395     0.61649965
O      -5.83036670     4.53788892    -7.89130174    -0.97176120    -1.14503375    -0.48677509
O      -1.89233700     0.04343416    -3.99117267    -0.53473071    -0.16391185    -0.14843259
O      -5.86373820     8.46828023    -7.99653552    -0.13146538    -0.53903180     0.03081742
O      -9.85667453     8.37088902    -4.08361111     0.52808590     0.25613506     1.16662778
O      -5.88477822     0.54373933    -8.08569468    -0.36857677     0.75731572    -0.27928081
