# total energy = -630.71924812 eV

CRYSTAL
PRIMVEC
        0.00279571     0.02951795    -7.98606283
       -7.83802570     0.01298533    -3.99532603
       -3.92160916     8.71933433     0.00634407
PRIMCOORD
56 1
Li     -3.81198770     2.46317940    -1.78262710    -0.58656977    -0.76351623    -0.25583725
Li     -3.90966783     2.19546818    -5.88312110    -0.25727802    -0.09951424    -0.27956304
Li     -7.56692799     2.23122673   -10.06472382    -1.00537914     0.02182507     0.53550224
Li     -7.94144633     2.13114006    -5.86846418     0.34261498     0.02529308    -0.53411334
Li     -3.84711014     6.21653210    -1.92903927    -0.05115935     0.73649141     0.22562561
Li     -3.89040918     6.53138578    -5.87033562    -0.01187091    -0.00032833    -0.12397711
Li     -7.89120851     6.39493612   -10.08188365     0.34067603     0.38472934     0.46069887
Li     -7.81928979     6.34460098    -5.96772684     0.06450316     0.21576771     0.47322678
Ti     -1.98983618     2.40836639    -3.98974281     0.99978913    -0.11508454    -0.20759569
Ti     -5.90440107     6.78315775    -7.96299442    -0.02144626    -0.06090939    -0.21173391
Ti     -7.63957568     4.38963706    -7.77824452    -1.32548058    -0.13877521     1.07000003
Ti     -7.91882048     4.25207802    -3.80286002     0.08606408     0.80157715    -0.26549673
Ti     -3.96005569     4.38938031    -7.62513903     0.25129590     0.04990004    -0.73761700
Ti     -4.09780261     4.40210379    -3.68934905     0.76695808     0.77258598    -1.36598310
Ti     -2.02821393     0.02248222    -2.30626159    -0.59196211    -1.68575014     0.05170411
Ni     -5.94592520     2.14519532    -7.91420747     1.25225725    -0.24533174     0.15902854
Ni     -5.91762987     2.33546459    -4.15481213     0.88561373    -0.95211568     0.68803736
Ni     -9.77900655     6.46050535    -7.98208949    -0.45324620     0.28511559    -0.15910282
Ni     -9.67334443     6.37740350    -4.04371791    -0.73941729     0.25104931     0.28029304
Ni     -2.06191738     2.22484246    -7.89604772     0.92331692    -0.24566688    -0.43649798
Ni     -5.88936941     6.49213852    -3.99448839     0.46021830     0.81313060     0.04457480
Ni     -1.95874257     0.10880505    -5.98046831    -0.22507843    -1.76499286    -0.07473565
Mo     -5.92783993     0.04100069   -10.31931758     0.89577392    -1.12294016     1.08151699
Mo     -9.79174917     8.72712149    -6.32940722    -1.12532926     0.11141625     2.07781150
O      -1.98151296     1.85317070    -1.93380033     0.00707189     1.23278038    -0.17962425
O      -1.93963605     1.92652573    -6.00899018    -0.19188162     0.69630757     0.01270839
O      -5.90339090     6.77061386    -2.03890116     0.31431908     0.30922194     0.28207391
O      -5.89557348     6.88484156    -5.89193107     0.38436361     0.66136724    -0.48081862
O      -5.73235530     1.84222954    -9.81456632    -0.46061099     0.95650916     0.62031809
O      -5.95269463     2.03291063    -6.03749423     0.00452833    -0.78283472    -0.55823979
O      -9.76544102     6.77012991   -10.19723284    -0.23653281     0.68537554     0.98178465
O      -9.68539302     6.77728706    -5.80788808    -0.85551166     0.45832132    -1.16706800
O      -3.86904384     2.45762227    -3.86129628    -0.43076593    -0.41047331    -1.14591222
O      -3.97623729     2.42028046    -7.87037472    -0.42316276     0.28627170     0.21052465
O      -7.84782184     2.30180458    -4.06323580    -0.43706235     0.99642274     1.14163864
O      -7.83826911     2.42420620    -7.94180472     0.13195860     0.16870176    -0.52001059
O      -3.85656265     6.31346555    -3.94122294    -0.24434968    -0.40325616     0.38324440
O      -3.92342240     6.30451177    -7.99303637     0.42733681     0.80229830     0.28864901
O      -7.74571237     6.36838242    -4.01696377    -0.61842745    -1.48860819     0.06951763
O      -7.89266193     6.43611862    -7.89517395     0.64714536    -0.92087024    -0.62512228
O      -4.08045670     4.26092903    -1.96626104     0.41966381     0.75780145     1.04763172
O      -3.79577558     4.46195599    -5.89458201    -0.16896028    -0.50118677     0.30993313
O      -7.80245509     4.44479279   -10.01313365    -0.26600960    -0.58515271    -0.25189615
O      -7.86073224     4.34077323    -6.00809153     0.45960058     0.36334060    -0.39985980
O      -7.87223239     8.66113063    -2.09342543    -0.00474068    -0.20250299    -0.03976837
O      -4.12530529     0.09590417    -5.95308475     0.22826922     0.35774255    -0.33407483
O     -11.68155291     8.67963522    -5.97271974     0.40599455     0.39592655    -0.25566226
O      -7.68265462     0.09766868    -9.86145336     0.32261316    -0.39496091    -1.13489483
O      -9.73512522     4.30917643    -7.91172517    -0.61042084     0.19887099    -0.43011675
O      -2.00407231     4.35543907    -0.17221617     0.14746834    -0.33457068     0.70715893
O      -5.89964992     4.15176675    -4.09585134    -1.32748004     0.35876270    -0.16901789
O      -5.84777692     4.73955373    -7.99150386     0.35820646    -0.31462965     0.28328106
O      -1.92820207     0.38565144    -4.12752889    -0.08045526    -0.07208244     0.73641861
O      -6.00978439     8.59492313    -7.94991908     0.54397655     0.42489235     0.59609750
O      -5.86569520     0.38760217    -4.03935632    -0.32413505     0.36276944    -0.93632754
O      -9.91092246     8.43157396    -8.05632497     0.86468004    -1.38369583    -1.48633032
