# total energy = -630.61520428 eV

CRYSTAL
PRIMVEC
        0.00285542     0.02004370    -7.95977623
       -7.82940539     0.00763210    -3.98158109
       -3.91729101     8.74642787     0.01461334
PRIMCOORD
56 1
Li     -4.03102460     2.21352594    -1.88187247     0.75747456     0.31028151    -0.29170621
Li     -4.04892957     2.30962807    -6.00114005     0.71918230     0.28317952     0.11078532
Li     -7.82041511     2.54142327    -9.87995651     0.35120074    -0.88662296    -0.41341291
Li     -7.85691999     2.44288357    -5.98878333     0.43554076    -0.55598981     0.44800420
Li     -3.87704557     6.69546629    -2.05474098     0.06070917    -0.13605912     0.34744371
Li     -3.85568393     6.31668373    -5.80002520    -0.42374629     0.03424391    -0.08650863
Li     -7.76463766     6.63842042    -9.85545421    -1.07081052    -0.57181743    -0.24984296
Li     -7.77349251     6.26690968    -5.97319514    -0.32827778     0.49439162     0.54557585
Ti     -1.99831307     2.21260219    -4.06422712    -1.04042489    -1.51019398    -0.17094169
Ti     -5.89288235     6.68454869    -8.00934169     0.07784634    -0.41223267     0.58578085
Ti     -7.85298850     4.23176929    -7.78816398     0.96057557     1.66662089    -0.11213258
Ti     -7.83741111     4.34612061    -3.68477443    -0.59441067     1.62612843     0.05401929
Ti     -3.81611435     4.38914797    -7.79361637    -0.20106910     1.18332173     1.51500419
Ti     -4.12099808     4.37070810    -3.67361432     0.75794999     0.58308051    -0.49724771
Ti     -2.29734492     0.03954493    -2.04119007     0.82587350    -0.18148326    -1.13783896
Ni     -5.78804648     2.35006967    -8.01295707    -0.97601242     0.01502239    -0.09969835
Ni     -5.92052079     2.21504950    -4.06398709     0.40107337     0.74150266     0.05062611
Ni     -9.70999350     6.43465440    -7.88396889    -1.25146612     0.38979920     0.96390074
Ni     -9.81046597     6.53236389    -3.86164728    -0.11504559    -0.33421217    -0.63785220
Ni     -1.92784817     2.07431078    -7.88826884    -0.20020930     0.48648585    -0.80553506
Ni     -6.00751674     6.73574714    -4.00420218     0.32877910     0.10716937     0.17493229
Ni     -5.83203527     8.70265955    -5.92395388    -1.00981771     0.29070785    -0.35075497
Mo     -6.03940555     0.03867825   -10.12867917    -1.89177940     0.61859402    -0.43601670
Mo     -9.62339469     8.71687986    -6.30309285    -1.48128150    -0.44430261    -0.63612901
O      -1.90407604     1.89404145    -2.04895766    -0.40090960     0.33614543     0.76858463
O      -1.90287119     1.84869025    -6.00858432     0.08207115    -0.04199879     0.27132689
O      -5.96074639     6.84285721    -2.09167051     0.59548224    -0.14348353     0.81421692
O      -6.00399979     6.88576518    -5.88312486     0.94364829    -0.40579862    -0.38875783
O      -5.80585273     2.12797102   -10.01906176    -1.47963587    -1.10957056    -0.06493694
O      -5.85476283     2.03728411    -5.99269353    -0.37475246    -0.88014403     0.08017195
O      -9.79907669     6.96260324    -9.78186350     0.11899389    -1.00416042    -0.06743725
O      -9.63689722     6.81461866    -5.89973359     0.10860181     0.32114391    -0.48059125
O      -3.97059458     2.35865861    -4.00916746     0.54102975     0.27483276     0.21290093
O      -3.94515771     2.57243612    -7.94516054     1.25984868    -3.16248505    -0.44519191
O      -7.85823040     2.47433954    -4.03163329    -0.57260202    -0.85120625     0.49360288
O      -7.82781123     2.31495792    -8.01807550     0.18315811     0.57379806     0.50878054
O      -3.85520596     6.33069419    -3.88495168     0.26058988    -0.65227940    -0.54553296
O      -4.00242982     6.34143907    -7.99261203    -0.11192340     1.10814322     0.28134406
O      -7.97109616     6.36027042    -3.83113077     1.14985087    -0.01107613    -0.34113463
O      -7.84076083     6.33496549    -7.90429281     0.84273987    -0.23612617    -0.72773537
O      -3.91945074     4.39163564    -1.92615616     0.04874258    -0.20539910    -1.01413082
O      -3.78775691     4.36109053    -5.99145368     0.21225927     0.48132349    -0.01174508
O      -7.65538495     4.40927726    -9.82936863    -0.64034542     0.19424848    -1.27191787
O      -7.66262746     4.46071536    -6.05633877    -0.71644591    -0.81743204     0.35391517
O      -4.10939143     0.04764742    -9.97252567     1.31260005     0.00869144    -0.16706972
O      -3.87260511     0.10124718    -6.20882303     0.31666380    -0.24559474     1.00186509
O     -11.41051599     8.62880474    -6.11517759     0.11179586     0.44913197     0.29478349
O      -3.95509501     8.66469497    -6.09010392     1.44739460     0.45328012     0.31839592
O      -2.01362151     4.05989008    -3.99221303     0.62397023     0.68654495     0.10216581
O      -9.73954018     4.61852745    -4.12592975     0.79404325    -0.10986425     0.55510593
O      -5.93382633     4.20506298    -4.13168264    -0.09509153     0.00068265     0.52054984
O      -5.80525532     4.28007116    -7.92963950    -0.70185307     0.14147691    -0.36126565
O      -1.89852777     0.14075088    -3.91587462    -0.50226920     0.37460759     0.12388195
O      -5.91525253     8.50439714    -8.09981900     0.25339973     0.14375282     0.28354879
O      -5.84151710     0.34039609    -3.98443215    -0.04220581    -0.23667325    -0.42665489
O      -5.73817991     0.49645251    -8.14734432    -0.56952190     0.55657454     0.51516572
