# total energy = -630.72143179 eV

CRYSTAL
PRIMVEC
        0.00279571     0.02951795    -7.98606283
       -7.83802570     0.01298533    -3.99532603
       -3.92160916     8.71933433     0.00634407
PRIMCOORD
56 1
Li     -4.08743971     1.96087841    -1.80092045     0.66036479     0.07273073    -0.79162937
Li     -4.02339915     2.48101612    -6.02777506     0.26617204    -0.77448622     0.35092895
Li     -7.81654736     2.26601021    -9.85475749    -0.35374514    -0.07376398    -0.83517192
Li     -7.71172149     2.19575517    -5.86699769    -0.43173040     0.28930073    -0.18300761
Li     -3.77676031     6.53698772    -1.89436429    -0.70181560    -0.43020764     0.15919095
Li     -3.87794056     6.56852360    -6.01795159    -0.36513471    -0.17839749     0.67356856
Li     -8.03692873     6.61503925    -9.95049894     1.00131479    -0.50232503     0.13824497
Li     -7.91896635     6.48026615    -5.88351438     0.37784443    -0.04448474     0.04722618
Ti     -2.05867953     2.20355714    -4.13249659    -0.41839162     0.13651659     0.15299533
Ti     -5.89867625     6.71046383    -8.10530889     0.67186244    -0.10809669     1.79042661
Ti     -7.88879647     4.38201524    -7.69670705     0.39244768    -1.00428570    -0.22952888
Ti     -7.86076883     4.37086053    -3.67310816     0.29974525    -0.18937461     0.81948686
Ti     -3.96539076     4.33673320    -7.73755840     0.05282672     1.08357105    -0.69825531
Ti     -3.98293905     4.43685149    -3.71188064    -0.64539523    -0.31594558     1.13915475
Ti     -5.61718393     8.71199370    -2.28721201    -0.63561806     0.41386172     0.66912106
Ni     -5.89914559     2.34116111    -8.06359637    -0.69788939     0.89368495     0.22213790
Ni     -5.94022201     2.20699618    -3.93413164     0.62109428     0.66469361    -0.88813362
Ni     -9.84859893     6.53357589    -7.75015540     0.81576357     0.30849466    -1.52324110
Ni     -9.76491860     6.41360891    -3.88157435    -0.50618345    -0.13941398    -0.16524798
Ni     -1.96607589     2.31232186    -8.07189935    -0.11785173    -0.49038536     0.62963760
Ni     -5.82998618     6.58370253    -4.06364421    -0.43955595     0.08640635     0.31835825
Ni     -5.85870597     8.67433203    -6.06291197    -0.33594956     0.68415822     0.94268384
Mo     -9.84487295     8.65653359   -10.27861324    -1.19882687    -0.56567742     0.59184276
Mo     -5.81332506     0.02982046    -6.37154293     2.37059158     0.15383317     0.90198395
O      -2.08808722     1.80102135    -2.09177666     0.40275968     0.71394278     0.69967950
O      -1.99956172     1.86170791    -6.03685091     0.00906834    -0.47058170    -0.47069605
O      -5.72912671     6.85196366    -1.95459242    -1.00123583    -0.94097314    -1.55292407
O      -6.01568135     6.85667205    -5.93346927     1.15539026    -0.26791575    -0.14380907
O      -5.96645380     2.02758832    -9.99985886     0.40708989    -0.21952347    -0.59561631
O      -5.82571785     2.00008314    -5.88012156    -0.59442966    -0.51876521    -1.12604038
O      -9.81172084     6.73302544    -9.71810037    -0.74822845     1.13434664    -1.02786637
O      -9.83951586     6.86597222    -5.91390248     0.45868542    -0.06270971     0.32179497
O      -4.01910947     2.43505344    -3.96623377     0.56293703    -0.43597651     0.16963676
O      -3.93740585     2.43142307    -8.02347711    -0.03677454    -0.06184292     0.28203561
O      -7.84799731     2.41766732    -3.94007067    -0.55020226    -0.16200893    -0.25567522
O      -7.93765458     2.41730507    -8.03374675     1.01131904     0.07049879     0.96109989
O      -3.84439476     6.44782272    -3.87507868    -0.97040140    -0.84564486    -0.60601752
O      -3.96572338     6.39268687    -7.92199099     0.44002182    -0.49406211     0.26401390
O      -7.82176515     6.28948692    -3.98259443    -0.05041018     0.77963828     0.59244080
O      -7.76002483     6.24118094    -8.00557499    -1.12268512     1.84272953     0.39103827
O      -3.84865364     4.56172425    -1.92836253     0.01331507    -0.41195038    -1.40173990
O      -3.88581576     4.29992142    -5.99242893    -0.04133168     1.07615608     0.65974653
O      -7.93150141     4.49357904    -9.87987392     0.31883128    -0.28911420    -1.15793303
O      -7.91915045     4.47534932    -5.94264211    -0.28683655    -0.41789497    -0.28878855
O      -8.08918293     8.68361424    -9.85672633     0.57489658    -0.00026416    -0.68460094
O      -7.93499979     8.62301716    -6.12645200    -1.33808008     0.52530036    -0.44345880
O      -7.73260473     0.05964677    -6.08362301     0.21376279     0.21729931     0.00343824
O     -11.67615858     8.70518924    -9.95427225     0.51825524    -0.33200436    -0.47400313
O      -2.01289270     4.02858880    -4.11361009    -0.31493217     1.60955334     0.70728462
O      -1.97284400     4.33398556    -7.94727217     0.23407405    -0.14987588    -0.30778581
O      -5.89302775     4.10472390    -3.99281692     0.07437719     0.65823580     0.26273347
O      -5.90100827     4.42614395    -7.93893220    -0.15628177    -0.79637134    -0.27180945
O      -1.94633452     0.22405686    -4.08761704    -0.28739232    -0.95386425    -0.66670231
O      -5.83057569     8.55224819    -7.95966775    -0.27518832    -0.22210515    -0.22178041
O      -5.91864572     0.29046321    -4.12391179     0.10709670    -0.17731889     0.91134067
O      -5.98738525     0.52448541    -8.14590476     0.41139236    -0.20630763     1.17798412
