# total energy = -629.99153257 eV

CRYSTAL
PRIMVEC
        0.00279571     0.02951795    -7.98606283
       -7.83802570     0.01298533    -3.99532603
       -3.92160916     8.71933433     0.00634407
PRIMCOORD
56 1
Li     -4.05990003     2.35991324    -1.93804066     0.53438382    -0.05439247     0.15738837
Li     -4.08661143     2.05715596    -5.96174032     0.68876440     0.34743568     0.08900030
Li     -7.96849881     2.11531237    -9.92879950     0.54285454     0.36395760    -0.15162392
Li     -7.96401797     2.07823990    -5.82795392     0.64053565     0.56594623    -0.12442966
Li     -3.99888937     6.44444855    -1.97933262     0.16081355    -0.06847900     0.25204480
Li     -3.81977050     6.45032376    -6.06953554    -0.44931328    -0.19173443     0.61431945
Li     -7.88380716     6.36093527    -9.99121380    -0.17500806     0.73538645     0.40991523
Li     -7.73050925     6.61608187    -5.91196415    -0.41427400     0.08320573     0.30091895
Ti     -1.94293798     2.18396352    -3.95371256    -1.13167747    -0.79389496    -0.85949035
Ti     -5.93471004     6.73675442    -7.97717366     0.68001633    -1.47861022     0.42873011
Ti     -7.89622166     4.41096953    -7.66069176     1.70327770    -1.08506252    -1.09848876
Ti     -7.71044999     4.40781154    -3.65419142    -0.51040195    -0.02710263    -1.50431052
Ti     -3.72549840     4.38780335    -7.73646606    -1.72028308    -1.12737331     1.45117846
Ti     -3.84189139     4.42264098    -3.74940158    -0.74873718    -0.97176055    -1.60530350
Ti     -5.99382269     8.62858768    -2.11939835    -0.48429406     0.44050663    -0.97983773
Ni     -5.88826660     2.32873547    -7.99620974    -0.34460197     2.23374704    -0.07153079
Ni     -5.93909848     2.27178480    -3.96278811     0.24862585     0.25636169    -0.37057761
Ni     -9.81180881     6.63719968    -7.81683713    -0.87001411    -0.18193201    -1.42054902
Ni     -9.67986206     6.57872742    -4.16735835    -0.61380043     1.44794449     1.05484665
Ni     -1.93246901     1.94775867    -7.96437292    -0.98083624     1.22767271     0.76570659
Ni     -5.78977151     6.59440447    -3.98813019    -0.82110516    -0.59668609    -0.15909597
Ni     -5.83492498     8.67694645    -6.09886704    -0.42936912     0.75979108     2.68093978
Mo     -9.89673137     8.72110314   -10.34084059     0.54446086     0.66878827     0.88296212
Mo     -6.01188397     0.06545162    -6.33483622     1.27101775    -0.44186007    -0.76821575
O      -1.96494342     1.84945090    -1.91331584    -0.30641737    -0.13293326     0.17409061
O      -1.99332609     1.92086020    -5.92422576     0.01386992    -1.69529910    -1.77275521
O      -5.93317610     6.66154008    -1.92495380     0.20880593     0.63398708    -0.78192571
O      -5.82176682     6.80089219    -5.97703122    -0.19936202     0.69737219     0.13068017
O      -5.87354951     1.97360996   -10.10465060    -0.21974852    -0.73611770     0.28480027
O      -6.00328788     1.97179096    -5.84852190    -0.14441660    -0.42713759    -0.03997841
O      -9.81287867     6.94496867    -9.74181608     0.64070881     0.26752578     0.18407914
O      -9.81579640     6.79146069    -6.00132714    -0.12527785     0.26097810    -0.61154393
O      -3.92994860     2.33093242    -3.99110716    -0.45957318     0.73123867     0.50124364
O      -3.93005619     2.36129544    -7.91010894     0.62306911     0.96235635    -0.50627425
O      -7.90533007     2.44373985    -3.92251366     0.36584092    -0.02681326     0.33435086
O      -7.92032576     2.39700249    -7.97853288     1.12508051     0.34612360     0.12642832
O      -3.88317778     6.31381052    -4.09019886     0.67613543     0.91955315     1.15216831
O      -4.05827878     6.38602198    -7.99947656     0.57484123    -0.73063672     0.12934107
O      -7.74538041     6.46950626    -3.97088766    -0.02891744    -1.28212316    -0.30451509
O      -7.91712590     6.34323583    -7.87466454     0.74296956     0.29430510     0.03411883
O      -4.11591192     4.37604865    -2.03038297     1.03273699    -0.08455674     1.24758073
O      -3.88167956     4.36972464    -5.91435708    -0.07265818     0.20819421    -2.23129284
O      -7.96769807     4.48477261    -9.92255548     0.07410180    -0.31961737     0.18804803
O      -7.77415881     4.22900578    -5.95873816    -0.58888585     0.52340082     0.97687684
O      -7.79238530     8.59573088    -2.21658451    -1.63392801     0.52636141     0.67539861
O      -4.19802930     0.03242149    -6.15266073     0.51980972    -0.36077675     0.28064225
O      -3.89942114     8.59998600    -2.04155339    -0.10798095     0.04872471     0.22312530
O     -11.66059557     8.71743468   -10.20098069     0.11815658     0.36545901     0.29380631
O      -1.97414920     4.08252416    -4.04960513     0.32022520     0.64368463     0.76264716
O      -9.79095610     4.85797032    -4.05157861     1.18159915    -2.01095870    -0.01600257
O      -5.83779558     4.51751688    -3.95063747    -0.67999189    -0.03788684    -0.30076180
O      -5.87718907     4.15499520    -8.06463043    -0.53085775     1.28909235     0.54483630
O      -1.77465540     0.22743722    -4.00959454    -0.42338434    -1.18793813    -0.13000897
O      -5.83638284     8.53121913    -7.97934623    -0.50343383     0.44792613    -1.07838376
O      -9.80707588     8.47571421    -4.14398691     0.29793677    -0.19739882     0.46627507
O      -6.03300424     0.60938039    -8.08763895     0.07198147    -2.39344039    -0.86093277
