# total energy = -629.88096627 eV

CRYSTAL
PRIMVEC
        0.00279571     0.02951795    -7.98606283
       -7.83802570     0.01298533    -3.99532603
       -3.92160916     8.71933433     0.00634407
PRIMCOORD
56 1
Li     -3.94597477     2.39569908    -1.78032864    -0.40459278    -0.55770313     0.07609357
Li     -4.19814548     2.60338251    -5.98617525     0.11081872    -0.46404189     0.10412943
Li     -7.78278443     2.52114845    -9.83360933    -0.36989821    -0.54402646    -0.16954741
Li     -7.95196748     2.10514014    -5.90729132     0.27676116     0.64351518     0.20674196
Li     -3.72200320     6.49833782    -1.96823735    -0.58965059     0.23731884    -0.26554864
Li     -3.81281983     6.38508578    -5.98019503    -0.11189491     0.27673270     0.35972657
Li     -7.86110796     6.48299404    -9.96409059    -0.04309029     0.25415880    -0.00965719
Li     -7.90428647     6.22433347    -5.98007590     0.54109578     0.51483448     0.25753129
Ti     -2.21561242     2.15197491    -4.05923310     2.00370147    -0.00739696    -1.03642732
Ti     -5.88435013     6.64904011    -7.96663819    -0.47047581    -0.75908839     0.35366094
Ti     -7.90605383     4.31452421    -7.67668551     1.17468622    -0.08090255     0.10537498
Ti     -7.83127308     4.28330460    -3.66166796    -0.16963457     0.57198301    -1.86717768
Ti     -3.82961764     4.49309926    -7.80535435    -0.01702092    -1.40043088     1.68164104
Ti     -3.99296143     4.44139300    -3.73181853    -0.54257837     0.76975017    -1.84137230
Ti     -1.78441698     0.09753583    -2.07092992    -0.23896709    -2.78605965    -0.27060952
Ni     -5.96030535     2.08182409    -7.91680099     0.49227707     0.35914315     0.81309192
Ni     -5.91928459     2.26254140    -3.92997230     1.48732612     0.18127189    -0.56259255
Ni     -9.73603236     6.47981391    -8.05579657    -0.95606592     0.50843032    -0.24384541
Ni     -9.60055186     6.61365200    -4.17889404    -0.43718425    -0.03207563     2.12617348
Ni     -2.09682529     2.12075221    -7.95777916     0.52874362    -0.77219895     1.48728623
Ni     -5.93589058     6.60711215    -3.99211960     1.43635530     0.24711644    -0.35943926
Ni     -5.80350712     8.73967184    -6.01861436    -0.32208611    -0.30063933     1.00657852
Mo     -5.94858924     0.09979435   -10.33684649     2.23343016    -1.55965935     0.55194923
Mo     -5.77525866     0.13959842    -6.36869709     0.67269713    -0.75365052    -0.28066232
O      -2.02674952     1.89653240    -1.94191413    -0.44029166     1.59292953    -0.24266748
O      -1.95105933     1.82487153    -6.00226453     0.32523359     0.89216384     0.22367479
O      -5.80400420     6.85296228    -1.89171551    -0.84404170    -0.16631409    -0.41109446
O      -5.94695811     6.84330124    -5.93262420     0.95800937     0.95244952    -0.30602906
O      -5.89729548     1.91432250    -9.74007288    -0.64144690     1.08021905    -0.27945822
O      -6.08174558     2.00825806    -6.00483099     0.74409956    -0.29522534    -0.60482401
O      -9.75315832     6.75122348   -10.22866628     0.19187810     0.58160360     0.18230529
O      -9.70580501     6.84689757    -5.96881774    -0.09400565     0.42546827    -0.53384666
O      -3.99672386     2.26610637    -4.06941991    -1.13187281     1.04279873     0.69272335
O      -4.03672782     2.45228399    -7.80641803    -0.79743904    -0.34426975    -1.21228538
O      -7.69731936     2.38740156    -3.84038377    -1.32054520    -0.40075578    -0.14724455
O      -7.92627716     2.41200728    -7.94082719     0.59715054    -0.00505361     0.02033399
O      -3.94986213     6.32090874    -3.89249208     0.40937359    -0.13382232    -0.55153067
O      -3.69990495     6.32142421    -8.11045319    -0.68287176     0.90137902     0.61280986
O      -7.69063914     6.24661642    -4.10058425    -1.50552843     0.18950045     0.88147955
O      -7.76052281     6.34912327    -7.92334467    -1.24393004    -0.01845496    -0.41892486
O      -3.98313878     4.28917507    -2.00971005    -0.00061171    -0.39014373     1.86082367
O      -4.03693717     4.38569038    -5.99440667     0.67038280     0.81131794    -0.63729876
O      -7.98677334     4.49282873    -9.92981613     0.61172812    -0.04891509     1.49388420
O      -7.95824336     4.32155552    -5.91942685    -0.39980767     0.01985082    -0.79730364
O      -4.18364874     0.05919938    -9.79327731     0.51809510    -0.41534179    -0.83169032
O      -4.04336261     0.12333130    -6.20788538    -0.60022803     0.16001437     0.14933864
O      -3.92049457     8.65978897    -2.12651889     0.42616791     0.84195678     0.64267218
O     -11.62110061     8.57921832   -10.11076722    -1.16185525     0.29575899     0.35236802
O      -2.05755507     4.14519313    -4.00149228     0.42426003     0.43374318    -0.03814288
O      -1.94546864     3.95269196    -7.83840494    -0.38958470     0.18876712    -0.94304376
O      -5.87103847     4.19395146    -4.06204570    -0.62962091    -0.51320708     0.57109391
O      -5.86598470     4.71855387    -7.81022196    -0.22184725     0.51404762    -0.97893405
O      -2.06150100     0.25059427    -4.01805716     0.10713514    -0.46242997     0.44768641
O      -1.95842530     0.04775933    -7.88524578     0.01428950    -0.50179108    -1.30562804
O      -5.75346789     0.37096438    -4.12612106    -0.57657743    -0.45239599    -0.83479263
O      -9.98953743     8.35311348    -8.11251422     0.41716818    -0.55279945     0.75894758
