# total energy = -630.73672785 eV

CRYSTAL
PRIMVEC
        0.00285542     0.02004370    -7.95977623
       -7.82940539     0.00763210    -3.98158109
       -3.91729101     8.74642787     0.01461334
PRIMCOORD
56 1
Li     -3.92424241     2.11190742    -1.98337953    -0.04066855     0.17694835    -0.00888492
Li     -3.96402501     2.36058437    -5.87828441    -0.16749404    -0.15326949    -0.15750107
Li     -7.79653282     2.16906440    -9.87892492     0.05625751     0.47180738    -0.35392865
Li     -7.82484719     2.32910764    -5.83700410     0.08456170    -0.36447385     0.00051067
Li     -3.82762184     6.47134722    -1.97935231    -0.46669392    -0.05807486     0.51002823
Li     -3.86350167     6.50882524    -5.96119026     0.04490624    -0.29389705     0.78356543
Li     -7.90132052     6.18735979    -9.92387277     0.19887996     0.81442240     0.70389380
Li     -7.82608892     6.38286231    -5.77868168     0.31965312     0.43874816    -0.31008116
Ti     -1.91381132     2.18936213    -4.10042644    -1.21765095     1.73922036     0.93966985
Ti     -5.78131816     6.80268200    -7.85773204    -2.26373523     0.39342607    -0.78720620
Ti     -7.79339580     4.31289261    -7.63687555    -0.20002060     1.57261078    -1.65535037
Ti     -7.90673809     4.34501353    -3.67774229     0.73961640    -0.50903968     1.34192119
Ti     -3.87154698     4.32786505    -7.74096058    -0.21055176     0.12843462     1.23596525
Ti     -3.98818904     4.39131623    -3.69547738     0.02946854    -0.58002029    -0.32401871
Ti     -5.98553050     8.71563963    -2.17769129    -1.29955735    -0.52703777     0.73765253
Ni     -5.80961063     2.32747452    -7.94365422    -0.34776199     0.24010028    -0.68367431
Ni     -5.95059359     2.34772555    -4.03397534     0.62807654    -0.46025834     0.12318884
Ni     -9.85969825     6.52503242    -7.82473443     1.77616171    -0.25877714    -1.56542406
Ni     -9.76996043     6.47272824    -3.96392190     0.20706792    -0.28738844     0.36325009
Ni     -2.03383550     2.10261329    -8.07170201     1.25023922     0.12419178     1.31235427
Ni     -5.78417191     6.62989631    -3.97089961    -0.72715728    -0.71620335     0.60124904
Ni     -1.93218568     0.05824115    -5.88753494    -0.70859787    -1.82011273    -1.24018564
Mo     -5.95657512     0.05887003   -10.18747331     2.64131834    -0.51352503    -0.98138249
Mo     -9.79569541     8.61386784    -6.41684334     1.30829175     2.56670118     0.06434358
O      -1.92430886     1.91263205    -2.01374787    -0.17290994    -0.33556514     0.24321409
O      -1.99011120     1.82130564    -5.99334401     0.09659141     1.42545880    -0.28024964
O      -5.87525735     6.79057320    -1.91327808     0.37360775     0.05161537    -0.70096119
O      -5.76642540     6.96860652    -5.82875269    -0.65667882    -0.39245927    -0.29855607
O      -5.85390311     2.04396016    -9.89664113    -0.16307608     0.47758588    -1.27062625
O      -5.84305181     2.02450930    -6.04071352    -0.38486459    -0.39848983     0.50194907
O      -9.78944069     6.90823829    -9.89798288     0.34823574    -0.21726259     0.55769542
O      -9.68508029     6.82152564    -5.99670783    -1.01661024    -1.87374675     1.09124746
O      -3.96183823     2.47980211    -3.90756806     0.09603207    -0.67144621    -0.80567218
O      -3.84668831     2.41421207    -7.88918562    -0.39904722    -0.08313423    -0.42213155
O      -7.90168003     2.39265615    -3.86477178     0.05395567     0.09310570    -0.98448150
O      -7.87017107     2.36784119    -7.86263765     0.50576102    -0.15881618    -0.47800438
O      -3.84901562     6.33910230    -3.88317016    -0.39309736     0.70781160    -0.33853029
O      -3.98464406     6.36812390    -7.82838708     0.96375454     0.28438863    -1.11656856
O      -7.82462457     6.28526250    -3.86822032     0.07191215     0.60596115    -0.33416228
O      -7.85019979     6.33213019    -7.99680494     0.57385716    -0.77803889     1.08035705
O      -3.89528956     4.43489944    -1.94700676    -0.00831893     0.40341839     0.65846207
O      -3.96384155     4.49257367    -5.93834853     0.33258880    -0.29721685    -1.21255838
O      -7.91691689     4.31536029    -9.81392248    -0.13190427    -0.07158688    -1.86750358
O      -7.96087887     4.49927333    -5.91427208     0.40004322    -0.66249485     0.48452859
O      -3.94367250     0.04901742    -2.28995359     0.46233538    -0.10719130     1.25918274
O      -7.99026274     8.66565326    -6.16518005    -0.35026130     0.47745677     0.55542229
O     -11.58056755     8.68626119    -6.03669503    -0.25809926    -0.10676470    -0.27703508
O     -11.57742913     8.71751718   -10.05142141    -2.97689003     0.39646827     0.62109857
O      -1.98328700     4.12372232    -4.01091146     0.23292533    -0.14347765     0.06750187
O      -9.80389519     4.55145595    -4.06501941    -0.07898821     0.04126217     0.29133342
O      -5.90327010     4.35452947    -3.99606336    -0.69683371    -0.54877101     0.00467591
O      -5.86435722     4.17531498    -8.01955056    -0.05648026     0.71027344     0.54135540
O      -2.02097823     0.26204301    -4.03403080     0.79977499    -0.47129245     0.00280855
O      -5.91559543     8.58427576    -8.01962635     0.37855349     0.27289919     0.34250361
O      -5.93687193     0.31639271    -4.02252533     0.25497102     0.57643400    -0.58631165
O      -5.83270966     0.54261407    -8.22168775     0.01244176    -1.05297941     1.92541533
