# total energy = -630.99031578 eV

CRYSTAL
PRIMVEC
        0.00279571     0.02951795    -7.98606283
       -7.83802570     0.01298533    -3.99532603
       -3.92160916     8.71933433     0.00634407
PRIMCOORD
56 1
Li     -4.08594328     2.16201564    -1.88830333     0.37980531     0.03084551    -0.22076844
Li     -4.07155451     2.29253668    -6.05200099     0.65856110     0.19942246     0.40523130
Li     -7.75567019     2.31125607    -9.99560672    -0.47732149     0.23718455     0.06605946
Li     -7.77789735     2.31965651    -5.94600766    -0.96347194     0.10040752    -0.13958513
Li     -4.00828538     6.72679378    -1.87335342     0.76854116    -0.10266622    -0.48918708
Li     -3.97272730     6.38743976    -5.90116493     0.38327847    -0.14104470    -0.10940400
Li     -7.80512537     6.57996425   -10.05442669     0.31317332    -0.04360748     0.21637768
Li     -7.89373433     6.71169414    -5.90866468    -0.06845712    -0.21400754    -0.01577515
Ti     -1.99009684     2.17102386    -4.08605998    -0.58133305    -0.33641624    -0.02786635
Ti     -5.85476465     6.65203039    -7.80884912    -0.11146231    -1.17305804    -1.85460662
Ti     -7.84235694     4.47843123    -7.71830217     0.01311120     0.14052351     0.14343952
Ti     -7.72055076     4.38859186    -3.76251831    -1.01656031    -0.06661981    -0.16895074
Ti     -3.84511779     4.39145058    -7.81403301     0.12844077    -0.39521707     0.81470560
Ti     -3.99323127     4.38854410    -3.60476401     0.38491307    -1.13216123    -1.12734398
Ti     -2.06920726     0.07436295    -1.98214916     0.08028072    -0.19318913    -0.22290596
Ni     -5.88322001     2.23859363    -7.90051105    -0.57809109    -0.12530816     0.68414086
Ni     -5.99665314     2.23663196    -4.13340491     2.72240921    -0.08481606     0.63638374
Ni     -9.86556995     6.44261506    -8.15242347     0.30804753    -1.77303160     1.13595216
Ni     -9.78238700     6.43638943    -4.01854507     0.28490177     0.41271535    -0.75612561
Ni     -1.99804104     2.21977812    -7.99600764     0.54964275     0.20987113     0.16385008
Ni     -5.82693582     6.65558447    -3.95265478    -0.73910426     0.07001037    -0.31627085
Ni     -1.98586324     0.09299308    -6.07361329     0.40652547     1.36795991     0.79595910
Mo     -9.90486195     8.65537059   -10.17960923    -0.70157646     0.28693207    -1.26987933
Mo     -5.87440851     0.06071361    -6.32939226    -0.46251284    -0.26045890    -0.79511899
O      -1.89188159     2.01059881    -1.92674391    -0.51140813    -0.50660168    -0.41363142
O      -1.98060252     2.02081748    -6.09633964     0.17392715    -1.14061719     0.22532707
O      -5.82613634     6.83252217    -2.05961484    -0.31439194     0.37990625    -0.18456156
O      -5.85660954     7.01873255    -5.96223249    -0.42700083    -1.41018481     0.67787501
O      -5.99751828     1.70992355    -9.63946214     1.01632607     0.41920284    -0.52882147
O      -5.99309391     2.05743863    -6.06211942     1.24107697    -0.97446108     0.09942166
O      -9.75488708     6.69385406   -10.12419777     0.05855738     0.15812677     0.13787637
O      -9.87779834     6.78634509    -5.92519552     0.67884847     0.82264464     0.16357304
O      -3.92916541     2.34178703    -3.93568389     0.01001344     0.54117565    -0.21918238
O      -4.00486206     2.33862464    -7.98353551     0.22286661     0.76163934     0.10164690
O      -7.75956009     2.36659870    -4.06296500    -2.18856804     0.70433909     0.49959106
O      -7.92913506     2.51665744    -7.94275405     0.96974504     0.12862633    -0.05582133
O      -3.97308600     6.22181118    -4.00817179     0.20454190     1.22789516     0.09754475
O      -3.86389616     6.38520189    -8.02379579    -0.55707065     0.04707923     0.99205803
O      -7.79630412     6.32522474    -4.05609250     0.10995990     0.31943351     0.78240600
O      -7.89764439     6.43820939    -8.08929878     0.65039576    -0.77230600     0.79048588
O      -4.01994863     4.24924057    -1.88078613     0.19920820    -0.26419608     0.29071069
O      -3.83267706     4.30219350    -6.04003145    -0.51777246     0.09097220    -0.62983154
O      -7.63544262     4.27293560    -9.99450915    -0.25912261     0.38184674     0.17213368
O      -7.60918618     4.49075358    -5.95843404    -0.51305335    -0.29225360    -1.36761338
O      -7.80350674     8.69947434    -2.04219748    -1.08139006     0.11649638    -0.09693670
O      -4.02107376     0.07396699    -6.06648256    -1.48720813     0.11029911    -0.08974119
O      -7.71198046     0.04725731    -6.15792760     0.37883611     0.19278076     0.26566810
O     -11.63592984     8.55090495    -9.86529061    -0.11554407     0.15756426    -0.90253587
O      -2.02215333     4.38542512    -4.06368335     0.75383423     0.34729457     0.50673358
O      -9.73460819     4.49397674    -4.07765367     0.22366844    -0.48633261     0.03056817
O      -5.82854726     4.15280293    -4.03588004    -0.24638805    -0.55618441    -0.27111187
O      -5.82506740     4.71726943    -8.01880682    -0.79349103     0.32557301     0.44459108
O      -1.85518287     0.31855973    -4.09138959    -0.46377580     0.60041811     0.61516383
O      -5.80712346     8.52222833    -8.00721437    -0.09135822     0.74085092    -0.49852876
O      -5.99783286     0.28113806    -4.03309585     0.35998465    -0.12112484     0.43228154
O      -9.82918353     8.19527605    -8.12446122     0.59667394     0.92064297     0.65325753
