# total energy = -630.58136726 eV

CRYSTAL
PRIMVEC
        0.00285542     0.02004370    -7.95977623
       -7.82940539     0.00763210    -3.98158109
       -3.91729101     8.74642787     0.01461334
PRIMCOORD
56 1
Li     -3.88949640     2.19399384    -1.82440256     0.10674551     0.26051179    -0.30544625
Li     -4.03461774     2.49596510    -5.96112721     0.21722810    -0.68186363     0.03157351
Li     -7.68914947     2.35150921    -9.89210984    -0.56724123    -0.44106395    -0.37924654
Li     -8.01322420     2.05840192    -6.02578227     1.04657604     0.18882316     0.69081104
Li     -3.97044383     6.63311752    -2.02568690     0.55498535    -0.40322087     0.43352525
Li     -3.88376960     6.92810722    -5.69599720     0.10688071    -0.35342050    -0.57639984
Li     -7.91324892     6.23122689    -9.87912464    -0.23361264     0.07250036    -0.11077998
Li     -7.76447989     6.41265588    -5.70925899    -0.96549910     0.18674573    -0.40601045
Ti     -2.05019371     2.24181096    -4.11800584     0.59724712    -0.54820099    -0.34159360
Ti     -5.96032433     6.67286230    -7.83797606     1.11394467     0.58510188    -0.77493171
Ti     -7.81238677     4.32368049    -7.64988037    -0.15026391    -0.14425490     0.67914562
Ti     -7.75854701     4.28424066    -3.83752847    -1.75214108    -0.81122183     0.71503806
Ti     -3.92588416     4.43414839    -7.59002250     1.39349088     0.70814634    -1.79103676
Ti     -3.98199017     4.38571113    -3.74800213    -0.25457277     1.60298086     1.80489474
Ti     -5.86916999     8.63822720    -2.28780149    -0.28304194     0.19784607    -0.59646391
Ni     -5.87355577     2.40801744    -7.99809196     0.88615872     1.10688549     0.10478739
Ni     -5.88079357     2.01205669    -3.95860002    -0.21185190     0.45259578    -0.08303321
Ni     -9.73328305     6.65369296    -7.79959171    -1.45238093    -0.23093781    -0.12695067
Ni     -9.81344843     6.54300705    -3.96493243    -0.25030182    -0.99941331    -0.22176572
Ni     -1.93305361     2.15103331    -7.97875026    -0.21872067    -0.21317090     0.43712029
Ni     -5.90336041     6.50519790    -3.93261515    -0.00721213     0.30314900    -0.46765106
Ni     -5.89471370     8.71100126    -5.95016380    -0.23315062     0.78922654    -1.93166564
Mo     -5.85068683     0.14226551   -10.29043789    -0.31792771    -2.25008369     0.10716943
Mo     -5.86381397     0.08091467    -6.36488739    -0.39090272    -1.26418354     0.75518421
O      -1.99443753     1.75764074    -2.03245250     0.00875959     0.96698492     0.04781771
O      -1.97638537     1.82497291    -6.06087338    -0.07392803     0.17668127     0.93159000
O      -5.90981678     6.76672008    -2.03326610    -0.18616883     0.05336944     1.12653499
O      -5.99383741     6.92720664    -5.95899125     0.70973250    -1.48853077     1.05505934
O      -5.81736502     2.00469995   -10.06795537    -0.02693345     1.29906631     0.09481070
O      -5.85711153     1.96381749    -5.74945541    -0.82544184    -0.00870629    -1.20253677
O      -9.77806761     6.98189746    -9.60329393     0.69800861     0.50990788    -1.32311317
O      -9.79145364     6.83380818    -5.94703252    -0.08937340     0.43368547    -0.30095358
O      -3.92601873     2.47309539    -3.96735889    -0.20973015    -1.73407985    -0.37325388
O      -3.91390578     2.53542314    -7.91414475    -0.01514061    -0.56657214     0.06574356
O      -7.84809776     2.20698104    -3.90786509     0.01445630     1.04764776    -0.64864991
O      -7.73628675     2.38596068    -7.95057777    -1.11053204     0.20010179    -0.01169026
O      -3.83318493     6.32731499    -3.97497528    -0.01450317     0.39728574     0.77300832
O      -4.00229441     6.34491401    -7.90002131    -0.42875838     0.80563590     0.09531973
O      -7.84248313     6.25455220    -3.85487134    -0.47613239     0.68032146    -0.48537370
O      -7.89847045     6.30656903    -7.85555543     0.64213253    -0.36308314    -0.05270353
O      -3.74508070     4.33653115    -1.97457371    -0.70371340     0.10429976    -1.52103646
O      -3.76930377     4.37620802    -5.86590168    -0.35111785    -0.23506076     1.19580986
O      -7.86238480     4.19239494   -10.03460983    -0.21327957     0.55726166     1.11950921
O      -7.99228268     4.19334970    -5.87499253     0.31498996     0.27435669    -1.18265842
O      -3.99337922     0.09043042    -2.17421980     0.41079593    -0.35847025     0.41101597
O      -8.10918765     8.75758973    -5.97337539     1.87276499    -0.19816582    -0.19676021
O     -11.70352956     8.74578011    -6.13361527    -1.03304489    -0.29704183    -0.01929225
O      -7.64247473     0.07344208    -9.98108752    -0.06959351     0.06529974     0.15459544
O      -1.90910474     4.05093529    -3.98011898    -0.35102124     0.02024334    -0.39316640
O      -9.86982790     4.61309539    -3.97845904     0.88837903     0.56156670     0.13817046
O      -5.92538078     4.62279239    -3.97673435     1.56593022    -0.27514607    -0.23335366
O      -5.91037389     4.44474238    -7.93808558    -0.08808673    -0.28419021     0.22004989
O      -2.11628965     0.03894302    -4.18551911     0.57505454     0.57129218     2.36902631
O      -5.92363713     8.49913332    -7.83347374    -0.02557276    -0.20512484    -0.70910754
O      -9.85900683     8.46329491    -4.13655161    -0.00864063    -0.26239516     1.35806732
O      -5.81654309     0.66455935    -8.09847662     0.08043375    -1.21740464    -0.23470463
