# total energy = -630.99515550 eV

CRYSTAL
PRIMVEC
        0.00285542     0.02004370    -7.95977623
       -7.82940539     0.00763210    -3.98158109
       -3.91729101     8.74642787     0.01461334
PRIMCOORD
56 1
Li     -3.87047445     2.23025799    -1.98412553    -0.16694213    -0.03292303     0.49185270
Li     -3.84737455     2.20396474    -5.98036327    -0.52697917    -0.00953702     0.42750775
Li     -7.80903229     2.43296948   -10.04104976    -0.37138632    -0.29889899     0.24522151
Li     -7.79005053     2.28697196    -5.87209548     0.00586956    -0.22242419    -0.26145617
Li     -3.84775452     6.53511767    -2.02250939    -0.25986181    -0.17827144    -0.18917664
Li     -3.91837866     6.68847401    -5.86097247    -0.12425432    -0.37436876    -0.07626043
Li     -7.99528303     6.67020228    -9.90931668     0.31576013    -0.42635131     0.12348740
Li     -7.88167332     6.45273553    -6.00493836     0.16574098     0.14625893     0.93511940
Ti     -1.84182496     2.01366337    -3.95663590    -0.82730980     1.04563738     0.17401697
Ti     -5.76074060     6.58736377    -7.85799715    -1.48664027    -0.27112576    -0.41521584
Ti     -7.88980222     4.38079807    -7.73500371    -0.38052707     1.17822346     0.23281304
Ti     -7.83493532     4.42657607    -3.78621873    -0.09619118     0.45425354     0.43380529
Ti     -3.89138595     4.33174899    -7.72303826     1.00845112     0.02351214    -0.41065505
Ti     -3.95088407     4.27569728    -3.76721914     0.00726186     0.84063115    -0.13651991
Ti     -6.00946173     8.61204440    -1.94363723    -0.40884216     0.47900654     0.93860153
Ni     -5.85975897     2.48279093    -7.97194477    -0.74046691    -0.62288729     0.01565071
Ni     -5.92831387     2.03969821    -3.90414758     0.28371706     0.23316616    -2.00505046
Ni     -9.74663848     6.69815116    -7.92667800    -0.66201632    -0.15990323     0.07846411
Ni     -9.81695195     6.51320963    -4.08069458     0.07675067    -0.41424033    -0.13759503
Ni     -1.96531722     1.97698855    -7.95867560     0.60859676     0.42780056     0.63386499
Ni     -5.85608134     6.67606240    -3.97836394    -0.18966920    -0.09273885     0.33932232
Ni     -5.92617990     8.72726880    -5.92610257     0.16878907    -0.09025756    -0.01584289
Mo     -5.96317318     0.09279416   -10.27318072    -0.77609416     0.06856607     0.00884456
Mo     -5.79340021     0.05584268    -6.38932201    -2.00496812    -0.15472992     0.55521058
O      -1.95876162     1.84223106    -1.86077297    -0.03071060    -0.35731042    -0.49715374
O      -1.96531637     1.81032329    -5.90959442     0.28841794     0.13974569    -0.75922101
O      -5.93725403     6.69110298    -1.83557671     0.22522424     0.80636226    -1.43020261
O      -5.91497622     6.90036792    -5.93874366     0.31503285     0.01410484     0.76872140
O      -5.92389237     2.02353336   -10.08587557     0.62605064     0.48539156     1.00436708
O      -5.89260578     1.93538335    -5.73905257     1.01536020     0.05075943    -0.58643047
O      -9.91817799     6.99560582    -9.78277927     1.45069189    -0.29000107     0.19786561
O      -9.79680056     6.83222589    -6.07798632     0.47613298     0.60942640     0.36762425
O      -3.80375560     2.29144216    -3.91372031    -1.51113440     0.41293052    -0.04654395
O      -4.00367978     2.42217576    -7.92769937     1.20266253     0.47199832    -0.21084329
O      -7.79670627     2.42315612    -4.07857818    -0.44898352     0.45056343     1.38906730
O      -7.81167942     2.41797362    -7.82820083     0.60393628    -0.30487904    -0.85513529
O      -3.70055276     6.38547445    -4.04465057    -1.12225676    -0.62657891     0.90840505
O      -3.93261738     6.41346552    -7.99415621     0.63629570    -0.40150868     0.53073325
O      -7.91803011     6.41339336    -3.95341929    -0.21659870    -0.34878847    -0.03799981
O      -7.86880036     6.36502373    -7.82208380     0.28139855    -0.14205965    -1.55129033
O      -4.02092938     4.48489873    -2.02403364    -0.20054688    -0.38371038    -0.29744716
O      -4.04174710     4.44956605    -5.97917695     0.43298050    -0.07645519     0.44719689
O      -8.09316233     4.33885491    -9.96013101     0.47372265     0.17060328    -0.64475784
O      -7.82249911     4.50883573    -5.99240780    -0.38398103    -0.71476237     0.46497485
O      -7.89547562     8.70906440    -9.89304619    -0.01679408     0.29078371    -0.35779511
O      -4.02007490     0.02473236    -6.00085689     0.58745109     0.02581591    -0.21748756
O      -7.63890761     0.09612194    -6.08604637     0.25887333    -0.95320700     0.04240485
O      -7.76190862     0.11275361   -10.12759269     0.17738609    -0.10667847     0.50329200
O      -2.00028436     3.96645244    -3.85826201     0.24906106    -0.17840862    -0.50727527
O      -2.03146649     4.53001083    -0.18928687     0.46321381     0.84857473     0.52759369
O      -5.92623435     4.85321742    -4.03265478     0.20323608    -0.58119155     0.18373393
O      -5.92965829     4.40466611    -7.96561416     0.54324847     0.24246313    -0.33150205
O      -1.90963181     0.02620819    -3.83074847     0.02996753    -0.34358206    -1.16290311
O      -5.81311549     8.44479451    -7.92657251    -0.26049406     0.74069822    -0.63502091
O      -9.78352532     8.46310721    -4.08703033     0.26563270    -0.62259762     0.59819575
O      -5.81102642     0.68811624    -8.12700801    -0.18091609    -0.80693913     0.17658840
