# total energy = -630.68741833 eV

CRYSTAL
PRIMVEC
        0.00285542     0.02004370    -7.95977623
       -7.82940539     0.00763210    -3.98158109
       -3.91729101     8.74642787     0.01461334
PRIMCOORD
56 1
Li     -3.98442360     2.29565872    -1.91224577     0.35405490    -0.03838206     0.03566047
Li     -3.84069252     1.90618044    -5.91883891    -0.69394947     0.32679345    -0.59562492
Li     -7.72413648     2.35499834    -9.99156020    -0.56881473    -0.01500901     0.24728470
Li     -7.69598160     2.03637842    -5.95515028    -0.75161528     0.23579632     0.48341914
Li     -3.81193931     6.57355405    -1.85986022    -0.77137504    -0.28184994    -0.35036112
Li     -4.00069460     6.23466758    -5.92904583    -0.04606198     0.19971267    -0.00743479
Li     -7.84426399     6.50884277    -9.75293902    -0.44245125    -0.25597608    -0.39652956
Li     -7.82328189     6.30324286    -5.92550987    -0.01737658     0.40566465     0.54505509
Ti     -1.95298455     2.33508705    -3.97983079     0.10220253     0.48056911    -0.11937334
Ti     -5.82662039     6.93727993    -7.93813555     0.00130807    -0.89290169     0.34096067
Ti     -7.72450746     4.41570997    -7.65601106    -0.09364160     0.36617533     0.99947833
Ti     -7.79404200     4.41412167    -3.62929686     0.09135963    -1.00896670    -1.66232809
Ti     -3.74573069     4.26144968    -7.63422541    -1.05030483    -0.72327071    -1.98694256
Ti     -3.96916119     4.48880373    -3.70861210     0.72479444    -0.88134536    -0.33414193
Ti     -6.14565184     8.74207743    -2.20286574     0.23149069     0.37466810    -0.25665985
Ni     -5.97485265     2.35482400    -7.97511075     2.21350188    -0.20516140     0.12013089
Ni     -5.79132439     2.27175725    -4.02873638    -0.57389421    -0.16281719    -0.56872607
Ni     -9.82062100     6.43770637    -7.86603137     0.81841213     0.67488897     0.05674781
Ni     -9.75593239     6.56132253    -4.03527007    -1.19692069    -1.07129323     0.37595987
Ni     -1.92109177     1.97438482    -7.96123448    -0.00878152     0.89780520     0.16923527
Ni     -5.91819327     6.61478054    -4.03949713    -0.12021979    -0.16588660     0.80096196
Ni     -5.90607287     8.74800456    -5.97328393     0.11770388     0.23682990     0.61538146
Mo     -6.08104572     0.06214001   -10.17285512     0.16472886     0.90488198    -0.51473382
Mo     -9.73609397     8.56227101    -6.37018680    -0.06934571     2.08805727    -0.50389888
O      -2.01388282     1.90835801    -2.00363302     0.92991990     0.31319290    -0.14597369
O      -1.95300265     1.83765003    -6.01197491     0.32834391     0.13282304    -0.35796465
O      -6.05091940     6.84953310    -1.96067914     1.16497702    -0.56847297    -0.07828735
O      -5.93184812     6.86192772    -5.96771568     0.57286035     0.31039266    -0.12231709
O      -5.82496670     2.10178673   -10.11170535    -0.56068478    -0.97867102     0.14329471
O      -5.87920196     1.83742232    -5.89914710     0.75577033    -0.26233415    -0.02249827
O      -9.66650469     7.08469623    -9.63543503    -0.92659654    -0.70332399    -0.22988818
O      -9.78579770     6.71190606    -6.00236757     0.50373238    -0.75019394     0.33684196
O      -3.80753517     2.41739286    -4.10779587    -1.14775014     0.20496825     1.13805189
O      -3.88057870     2.31884370    -7.95782880     0.08312308     0.58351049     0.36870148
O      -7.82986081     2.48284563    -3.96216111     0.33915295    -0.48287005    -0.08799509
O      -7.82914458     2.42911399    -7.91337249    -0.56397080     0.22556838    -0.20147460
O      -3.86635332     6.38078001    -4.06019201    -0.01049365    -0.03383563     0.74807016
O      -4.01048243     6.26665859    -7.94476438     0.12010586     0.71605102     0.35120322
O      -7.95108626     6.28377825    -3.88578512     1.19366511     1.69264671    -0.55030913
O      -7.83574300     6.48014455    -7.83419257     0.51252888    -1.30826281    -0.32425046
O      -3.87166914     4.32198468    -1.97226608    -0.31355842     0.11821674    -0.01488759
O      -3.96498022     4.25564103    -5.93698413     0.28492848     0.56317440     1.67636927
O      -7.90383835     4.37080789    -9.85121567     0.13125108     0.08415603     1.07070697
O      -8.04219047     4.36686337    -5.88943589     0.79413851     0.20607259    -1.47867717
O      -3.99018943     0.14105319    -2.13768748    -0.96780406    -0.16460682     0.18729349
O      -7.84417458     8.65414623    -6.05805126    -0.72828045     0.11710392    -0.15445736
O     -11.51301730     8.58344340    -6.11925595     0.01132826     0.17587345    -0.09437261
O      -7.84455737     0.12805545    -9.90670386     0.45091725    -0.24734745    -0.67122084
O      -1.94432117     4.33166401    -3.99636892    -0.10657841    -1.42016936    -0.24807107
O      -9.79074444     4.61400452    -3.94474247     1.04373931     0.68010456     0.21266188
O      -5.83146444     4.64202431    -4.01393756    -1.57715990    -0.07051596     0.06950424
O      -5.83545336     4.26442112    -7.82955790    -0.63686835    -0.41253671    -0.43770747
O      -1.89630055     0.19925715    -4.02141587    -0.23476995    -0.01888318     0.21382008
O      -5.49402509     8.68880472    -8.15471769    -0.89974204    -0.03615361     0.09549509
O      -9.92358235     8.52858845    -4.02239717     0.55215507    -0.38496653     0.28115454
O      -5.93083157     0.50420022    -8.16017008     0.49689756     0.33506020     0.90923175
