# total energy = -630.71183700 eV

CRYSTAL
PRIMVEC
        0.00279571     0.02951795    -7.98606283
       -7.83802570     0.01298533    -3.99532603
       -3.92160916     8.71933433     0.00634407
PRIMCOORD
56 1
Li     -3.96398554     2.30914595    -1.88223981     0.15021801    -0.19853052    -0.26217866
Li     -4.00241886     2.48369400    -6.07564782     0.15616810    -0.12777649     0.68595296
Li     -7.80961271     2.36086215    -9.91712351     0.31749008    -0.01900096    -0.24644296
Li     -7.85130893     2.40017726    -5.87044118    -0.04001063    -0.67056666    -0.27028426
Li     -3.93297376     6.55517790    -1.83720402     0.19893024     0.12485300    -0.81472768
Li     -3.82777442     6.41457480    -5.90533807    -0.58416364     0.27627986    -0.31758359
Li     -7.84798943     6.59476007    -9.92314699     0.03013584    -0.11260276     0.19435561
Li     -7.86614758     6.37774560    -5.98967062    -0.23600086    -0.06150379     0.27481972
Ti     -2.05733871     2.28990680    -4.04722226     0.62021813     0.34164181     0.35972252
Ti     -5.94394059     6.79964785    -7.86950459    -0.80550301    -0.34718977    -0.29244849
Ti     -7.70622662     4.28378988    -7.77583051    -0.09096489     0.83810055    -0.26730469
Ti     -8.01312836     4.38995992    -3.68628761     0.85478135    -1.74874954     0.28747398
Ti     -3.91897479     4.38683430    -7.82127585    -0.47883839     0.79742136     0.62223329
Ti     -4.10322185     4.45198248    -3.73901431    -0.74476520     0.11764670    -1.57482385
Ti     -1.78883757     0.02184150    -2.19010034     0.17026228    -0.12996222    -0.41583299
Ni     -5.85945023     1.95568479    -8.00923606    -0.86169718     0.24151681     0.82895724
Ni     -5.88241896     2.38492805    -3.95883462    -0.29582150    -0.11224845    -1.06068552
Ni     -9.88049973     6.30214125    -8.16789555     1.45740555     0.33352604     0.87634124
Ni     -9.85728590     6.58222656    -3.93789427     0.69060734     0.26114413    -0.21868958
Ni     -2.01215943     2.12421993    -7.92639064     0.55355465    -0.24965879    -0.47923114
Ni     -6.02265927     6.50107654    -3.95376278     0.66652749     0.58079774    -0.30793155
Ni     -1.87115376     0.10586511    -6.00348764    -0.34357864    -1.33864573     0.93291904
Mo     -9.85483646     8.72459128   -10.29675243     0.96478277    -0.33030667    -1.82887340
Mo     -5.69297887     0.07105566    -6.20673406    -0.45247712     0.21505157    -1.70863176
O      -2.05238913     1.96672391    -2.15879026     0.05397657    -0.57396386     1.03734642
O      -1.82354521     1.91169305    -5.92466246    -0.68901633     0.00343664    -0.97871675
O      -5.91130385     6.77810650    -1.94101262    -0.05477833     0.93633370    -0.38262451
O      -5.99136522     6.98967429    -5.94165654     0.79691099    -0.49256790     0.14078429
O      -5.86835884     1.89038893    -9.87693173    -0.44064194     0.68576818     0.60198753
O      -5.89994907     2.04990853    -6.10808322     0.21107215    -0.94494604    -0.10750288
O      -9.78719092     6.74592738   -10.14458782    -0.26951751    -0.29447352     1.25715942
O      -9.69480694     7.01352606    -5.68253870    -1.33744658    -0.65616025    -0.30940364
O      -3.96574290     2.52458329    -4.00726017     0.21643198    -0.49737289    -0.54952758
O      -4.10668384     2.40276212    -7.93087691     1.18798215     0.43137181    -0.59281245
O      -7.73500932     2.43047430    -3.99729251    -0.85338568     0.09364403     0.81134095
O      -7.77926408     2.38258735    -7.98706741    -0.04168065    -0.41779683    -0.21354070
O      -3.98127049     6.32590039    -4.01418277    -0.16403897    -0.27215120     0.06555074
O      -3.91011531     6.44763064    -7.99414006     0.25908416    -0.60521903     0.60680072
O      -7.90331076     6.20220589    -4.08463186    -0.22856702     1.71973250     0.41644933
O      -7.90454400     6.49233212    -7.86650375     0.16564612    -1.34116598    -0.82891533
O      -3.75616778     4.38087902    -2.04462823    -0.07914958     0.12244132     1.91018206
O      -3.68174072     4.44520513    -6.05034857    -0.89416209    -0.19114584    -0.36905980
O      -7.73330531     4.49760840    -9.91911323    -0.24818875    -0.27525669    -0.21735126
O      -8.00498787     4.20455565    -6.05727065     0.35647541     1.41194147     0.49582154
O      -8.03882370     8.71650412   -10.04762846    -0.13656470    -0.32330300     0.23624823
O      -3.95940274     0.02830705    -6.22920258     0.19249978     1.21976127     0.35730492
O      -7.85313758     0.08472538    -6.06313978     0.33014569    -0.18539582    -0.05451691
O     -11.66743769     8.61929773   -10.04093071     0.34973996     0.41931078     0.10101576
O      -9.65285772     4.20646650    -8.19574053    -1.68020371     0.75193558     0.45355344
O      -1.97746860     4.01520111    -7.97460791    -0.79366634    -0.41741154    -0.23422003
O      -6.00779515     4.28875152    -4.04079104     1.31241370     0.02343906     0.21025260
O      -5.88663034     4.86307432    -7.86731945     1.18960335    -0.53621097    -0.10260922
O      -2.09113839     0.19225319    -4.06734815     0.14154107     0.55799134     0.08479389
O      -5.86749070     8.74806518    -7.94850397    -0.02470620     0.52208945    -0.47149594
O      -5.80812152     0.53516695    -4.17645974    -0.44649516    -0.55704817     1.32457910
O      -9.88062600     8.12330193    -8.00792208    -0.30232251     0.69007055     0.42908585
