# total energy = -630.43697555 eV

CRYSTAL
PRIMVEC
        0.00279571     0.02951795    -7.98606283
       -7.83802570     0.01298533    -3.99532603
       -3.92160916     8.71933433     0.00634407
PRIMCOORD
56 1
Li     -4.13092912     2.07603434    -1.85959899     0.74031939     0.54508435    -0.16771035
Li     -3.88206101     2.01762720    -6.10715123    -0.14008602     0.19110293     0.42382845
Li     -7.84022526     2.19535744    -9.98847667    -0.39421112     0.22774471     0.25890433
Li     -7.91606996     2.12051317    -5.84837029     0.58897180     0.18923092    -0.45720100
Li     -3.95373586     6.76204156    -1.92584407     0.28394865    -0.53799871    -0.25679009
Li     -3.85931758     6.42879548    -5.96436210    -0.40826044     0.15789842     0.17622845
Li     -7.95922863     6.36255515    -9.94593194     0.80865384    -0.01531565    -0.53984511
Li     -7.68263386     6.70177205    -5.94878500    -0.58109455    -0.47126194     0.35069583
Ti     -2.08859696     2.46040248    -3.89477120     0.91439535    -0.58544344    -0.42186294
Ti     -5.91301086     6.73597867    -8.06093986     0.48110391     0.02821671     0.56634477
Ti     -7.68237712     4.36090866    -7.81346743     0.02994243     0.42062519     1.49861378
Ti     -7.85174974     4.30036801    -3.74526130    -0.01845287     0.17077818    -0.26191360
Ti     -3.88316216     4.39868623    -7.78846887    -0.49333320    -0.21886489    -0.31288178
Ti     -4.06870303     4.49614404    -3.80218264     0.48257621     1.11125599     0.86440314
Ti     -2.18551319     0.04863412    -2.16419999     1.18807194    -0.61870736     0.11321072
Ni     -5.85645685     2.07353136    -7.89032685    -0.47618049     0.15207123     1.20148643
Ni     -5.83412801     2.20126044    -4.09325395    -0.69622627    -0.12219880    -0.23805879
Ni     -9.76990433     6.48178517    -7.98572091    -0.18264815     0.16079044     0.01790107
Ni     -9.82254221     6.51813058    -3.94742170     0.69525779    -0.24411920    -0.32345021
Ni     -1.97662973     2.15383844    -7.93897853     0.04966990    -0.04107741    -0.05532948
Ni     -5.85498008     6.67830262    -4.00835606    -0.50323056     0.02416439    -0.55662423
Ni     -1.92972465     0.12694825    -5.85456698    -0.00727029    -1.05731545    -1.70345812
Mo     -9.92967457     8.74893858   -10.24440591    -1.12037427    -0.94658619     0.09869091
Mo     -9.81583211     8.61858200    -6.29940499    -0.20150212     0.83260051     0.39317137
O      -1.99778480     1.95676995    -1.95992247    -0.16234804     0.63931324     0.17363965
O      -1.97861291     1.89724904    -6.02407564     0.20360858     1.06128702     0.16918542
O      -5.84707119     6.83477702    -2.10373865    -0.20565854    -0.27622079     0.64989419
O      -5.79678070     7.03651407    -5.97211116    -0.58668139    -0.97841969     0.95235719
O      -5.99183998     1.82553144    -9.67900158     0.92416964     0.06337896    -0.85868475
O      -5.79451215     1.97506852    -6.03758154    -1.09886669    -1.20146231    -0.28972491
O      -9.70283776     6.85130389    -9.97270717    -1.41902644    -0.16965433    -0.75469668
O      -9.85195533     6.67681007    -5.84783437     0.40826106     1.04139322     0.01460322
O      -3.93499144     2.43858285    -4.11672095     0.16646543    -0.13940853     0.76287687
O      -3.96847449     2.35338077    -7.97442877     0.32655558     0.66045108    -0.12480995
O      -7.84014363     2.23548937    -3.95570341    -0.03791607     1.46296427    -0.13928500
O      -7.91271331     2.46669801    -7.95335545     0.31216027    -0.57517423     0.06918549
O      -3.93467862     6.49713649    -3.96843919     0.39699829    -1.61495646    -0.28282154
O      -3.91258847     6.41291625    -7.91215551     0.38470981    -0.13536522    -0.60717205
O      -7.77865763     6.28321371    -3.95105533    -0.17169489    -0.24895022    -0.22543387
O      -7.87748200     6.38217733    -8.08961515     0.75463258    -0.31227323     1.02722957
O      -3.69861875     4.30935801    -2.06829997    -0.78937342    -0.18390473    -0.31915257
O      -3.94379008     4.41006659    -6.04854977     0.32761594     0.01259304     0.73448485
O      -7.78662736     4.31261575    -9.95590330     0.42611517    -0.00870779    -0.66310710
O      -7.59604113     4.36293379    -6.03563847    -0.68495411     0.09348761    -0.47953992
O      -7.87907345     8.65949238    -2.17789115    -2.06995032     0.83472098     0.40477487
O      -8.01787717     8.72065752    -6.04168119     0.90819303    -0.17025580     0.77441475
O     -11.66604508     8.68681075    -6.28739186     0.81532550     0.68508955     0.87004536
O     -11.73376206     8.72808542   -10.11731346     1.36882970    -0.05787532     0.75300512
O      -1.97215439     4.38061617    -4.11239670     0.21566722    -0.29271646     0.23071548
O      -9.76714824     4.47090104   -11.89637325     0.30277628    -0.27378698    -0.47258932
O      -5.83375946     4.02040123    -4.05366454    -1.39321364     0.36434600     0.36522569
O      -5.81125913     4.75567614    -8.03941215    -0.07406078     0.05687980    -0.46358491
O      -2.02642764     0.39386399    -3.96836873     0.26597822     0.53194935    -0.70948195
O      -5.79137115     8.58428510    -8.06310084    -0.51414876     0.35397977    -0.41155321
O      -5.96248464     0.31618584    -4.03966365     0.48806425    -0.05858713    -0.64264061
O      -9.54004373     8.37723540    -8.06336460    -1.04551563    -0.66659234    -1.43278113
