# total energy = -630.99805302 eV

CRYSTAL
PRIMVEC
        0.00279571     0.02951795    -7.98606283
       -7.83802570     0.01298533    -3.99532603
       -3.92160916     8.71933433     0.00634407
PRIMCOORD
56 1
Li     -3.97445795     2.31797452    -1.90567841    -0.02743434    -0.19898964    -0.29729476
Li     -3.97685397     2.10235914    -5.99873777     0.09651397    -0.08429610    -0.28420424
Li     -7.77264880     2.20827690    -9.97869702    -0.12249760     0.22974041    -0.11021962
Li     -7.88856138     2.17648041    -5.89230242     0.58851646     0.01240294    -0.27419564
Li     -3.96972835     6.36226465    -1.94285854    -0.05878310    -0.05805200     0.06474564
Li     -3.95016379     6.14375860    -6.00797798     0.04263929     0.68717916     0.75406504
Li     -7.74485474     6.66259460    -9.90250020    -0.51608255    -0.01960920    -0.25548730
Li     -7.80096226     6.56824795    -5.68778913     0.14177768    -0.29977939    -0.81985076
Ti     -1.99162639     2.32447849    -4.13061547     0.11264212     0.86528275     0.89818104
Ti     -5.86595920     6.99115851    -7.98921623     0.28019845     0.02069010     0.70174476
Ti     -7.75873248     4.43962073    -7.66751110    -1.13058864    -0.42853142    -0.58856896
Ti     -7.90239957     4.36147078    -3.65281822     0.78969976     0.80745600    -0.35553646
Ti     -4.01477414     4.25109939    -7.71162131     0.25288703    -0.56597050    -1.08792191
Ti     -4.04992442     4.44875200    -3.79600005     0.52243356    -1.38272578     0.59944446
Ti     -2.01108578     0.14740418    -2.16139360    -0.19674945    -0.80067019     0.34195939
Ni     -5.98757753     2.23387980    -7.98093616     0.95013559    -0.27251934    -0.82184392
Ni     -5.85100836     2.39015370    -4.22788094    -0.02138523     0.02175471     0.34835134
Ni     -9.75391926     6.43253336    -8.03019698    -0.38129415     0.04611437     0.75718449
Ni     -9.83793936     6.35917073    -3.95629675    -0.03537447     0.29461722     0.30103023
Ni     -1.97480619     2.25889875    -7.91660970     0.29755129    -0.51512079    -0.58496914
Ni     -5.94871712     6.58534926    -3.91903048     0.79861830     0.22634851    -0.69012989
Ni     -5.78706254     8.72888565    -5.85735101    -0.39519373    -0.68019770    -0.83858191
Mo     -5.96597893     0.06276029   -10.34651841     0.65174669     1.23169137     1.05172584
Mo     -9.75512257     8.49599642    -6.30141168    -2.72168755     1.61533434    -0.23490882
O      -1.92214887     1.99125243    -2.01519659    -0.53788208     0.28053678     0.21765578
O      -2.00228862     1.80762609    -5.98316418     0.52264759     0.87808621    -0.09038066
O      -5.81494289     6.85056553    -1.98645794    -0.47100527    -0.22939448     0.86645415
O      -5.83489449     6.89244337    -5.94154852     0.07556442    -0.19111837     0.21649223
O      -5.91802096     2.00971480    -9.85075031     0.15209856    -0.68044843    -0.90125130
O      -5.86070143     1.97791130    -6.19509548    -0.39737743    -0.51798209     1.77648718
O      -9.78195203     6.93032408    -9.94867154    -0.24806771    -0.83741750    -0.20910367
O      -9.99126016     6.65965455    -5.95280479     1.95818605    -0.12162478     0.13003068
O      -3.89551468     2.32713002    -4.06266386    -0.42251061     0.96314712     0.24813649
O      -4.00766120     2.30332415    -8.00471810     0.40170255     0.62203787     0.31570438
O      -7.71853088     2.51239972    -4.04414496    -0.42826915    -1.20243489     0.03493457
O      -7.91249995     2.41864293    -7.92900228     0.12459050    -0.03655980    -0.31010700
O      -3.83658102     6.29711561    -3.98470470    -0.05316743     0.56441638    -0.47758331
O      -3.92495278     6.22531220    -7.89774330    -0.84583294     0.50821038    -0.32709001
O      -7.93994152     6.37498714    -3.87328891     0.11791669    -0.51509765     0.05172357
O      -7.73747496     6.41628787    -7.95425471     0.03524095     0.17354800    -0.10714049
O      -3.83077372     4.27127223    -2.02195177    -0.36845716     0.25975460    -0.39525649
O      -3.77657346     4.16481803    -5.96998377    -0.24320838     0.61335109     0.39858678
O      -7.70431776     4.25397500    -9.91173743    -0.07698951     0.51181425     0.33925129
O      -7.74741118     4.42519720    -5.94445523    -0.54063349     0.34560636     0.40974436
O      -7.93023638     8.75116086   -10.00016497    -0.03572271     0.17128593    -0.32963182
O      -7.98640613     8.58151969    -6.03713444     0.18108766    -0.00506876     0.15371589
O     -11.65090220     8.67498984    -6.01990401     0.35760462     0.23946371     0.20507629
O      -7.76456241     0.08115479   -10.06809119     0.76698633    -0.03478846    -0.45472505
O      -9.73477745     4.25255453    -8.09332051    -0.47705112    -0.31318948     0.16304142
O      -1.91514118     4.23124634    -7.93746241    -1.40555939    -0.47815789    -0.17327053
O      -5.89679119     4.37067036    -4.14865816     0.26125702    -0.27038685     0.37151679
O      -5.91019777     4.28443763    -7.90844632     1.44252240    -0.41625692    -0.35600151
O      -1.95181559     0.17888157    -3.95582274    -0.01933580     0.24152467    -0.81451926
O      -1.87057708     0.10703973    -8.01629889    -0.25058296    -1.03169015     0.05549915
O      -5.85815225     0.51487655    -4.13432135    -0.19354108    -0.67059515     0.01698820
O      -6.02544435     0.31738508    -8.06694573     0.66209467     0.23039234     0.11427486
