# total energy = -630.47815764 eV

CRYSTAL
PRIMVEC
        0.00279571     0.02951795    -7.98606283
       -7.83802570     0.01298533    -3.99532603
       -3.92160916     8.71933433     0.00634407
PRIMCOORD
56 1
Li     -4.05808450     2.13879388    -1.97874517     0.47564724     0.24459760     0.06358099
Li     -3.98261848     2.59386254    -6.05816314    -0.10988513    -0.64240963     0.14606885
Li     -7.82154091     2.31598947    -9.99844601    -0.12120161    -0.26993456     0.23126893
Li     -7.71554233     2.20044098    -5.87173624    -0.47925426     0.06846571    -0.32378668
Li     -3.88161363     6.75790867    -1.96415416    -0.10677431    -0.36338651     0.34033885
Li     -3.95840878     6.35801659    -5.81761223     0.20839313     0.09194260    -0.30198639
Li     -8.03838705     6.34876850    -9.94871759     0.55529731     0.26789233     0.31307222
Li     -7.84936882     6.50572325    -5.88682650     0.60712984     0.05596021     0.13137485
Ti     -1.96018331     2.14979974    -4.16868567     0.07598077     0.85919983     0.39797712
Ti     -5.80001050     6.69665780    -7.91255921     0.32746267    -0.63350517    -0.75658160
Ti     -7.89254954     4.38666626    -7.68074879     1.56010115     0.51377119     1.60738659
Ti     -7.77011585     4.22342357    -3.63640222     0.25444317     1.66899846    -0.64787207
Ti     -3.74229988     4.36737684    -7.84573714     0.26351639     1.52115869    -0.91421603
Ti     -3.86504588     4.36346379    -3.63196034    -0.02826914     0.25077866    -0.14500341
Ti     -6.20675600     8.67330464    -2.13807516     1.08218346    -0.62057177     0.43989137
Ni     -5.94106057     2.47190228    -8.00602397     0.45397333    -0.51262242    -0.64761168
Ni     -5.80365930     2.17936208    -4.04136797    -1.11968564    -0.47064639     0.05180515
Ni     -9.81257189     6.67208984    -7.84427713     0.34853319    -0.85205948     0.25853758
Ni     -9.61021909     6.41854785    -4.09259667    -1.31691741     0.68507192     0.48113644
Ni     -1.97261239     2.06683762    -8.06357963    -0.17287150     0.33638919     0.31317927
Ni     -5.75701871     6.58328371    -3.89242875    -1.00420533    -0.46331821    -0.10643227
Ni     -2.00764861     0.10256484    -6.06166477    -0.60509247    -0.63739097     0.70498971
Mo     -9.99316449     8.69609092   -10.21061274    -1.35644883     0.10311249     1.08985767
Mo     -9.81475426     8.73311008    -6.41402261     0.45449161    -0.39259578     1.36149633
O      -1.97116918     1.83234266    -1.95768059    -0.56057476     0.11779542     0.07325736
O      -2.07436211     2.03074290    -6.08251018     0.66593088    -0.96900584    -0.49476688
O      -5.81865166     6.66828779    -1.99128054    -0.44083731     1.30108183    -0.11423880
O      -5.84304497     6.96988193    -6.00630622    -0.05754762    -0.35542557     0.84152348
O      -5.89373944     1.93986837   -10.08732825     0.06626930     0.49473474    -0.55935589
O      -5.77107008     1.94735124    -5.90277535    -0.85045507     0.24015703    -0.63653768
O      -9.86292482     6.93224066    -9.71056014     0.03156875    -0.87430824     0.13276345
O      -9.74167744     6.77039042    -5.95180885    -0.63730074     1.10514692    -1.07995642
O      -3.96987483     2.45733093    -4.13237956     1.69596533    -0.52525757     1.04105140
O      -3.99853408     2.53191542    -8.10927576     0.25475606    -0.99455305     0.71619470
O      -7.87519968     2.33677250    -3.98696306     0.07827976    -0.15214353     0.65417162
O      -7.85423394     2.44793764    -8.04767696    -0.05957415    -0.70610173    -0.08581612
O      -3.82448501     6.27419113    -3.86576171    -0.48291514     1.01537350    -0.54104142
O      -3.81952170     6.47058487    -7.96190882    -0.89650516    -0.56357058     0.06326774
O      -7.76033586     6.31778957    -3.94713855     0.92215687    -0.74094121     0.06638591
O      -7.88733077     6.32339626    -7.86225007     0.43433973     0.61428347    -0.26334612
O      -3.95889861     4.42562105    -1.90963899     0.03808931    -0.07297378     0.21326940
O      -3.94635752     4.46697892    -6.10404978     0.01592932     0.15695725     0.78951340
O      -8.15910553     4.46712086    -9.87224024     0.84958657    -0.83693644    -1.54149886
O      -7.67287203     4.22979277    -5.90394960    -0.44835997     0.50027002    -0.95172538
O      -8.00403387     8.55510598   -10.07868008     0.25464490     0.93153310     0.12187334
O      -7.96214434     8.70078255    -6.01365890    -1.02918644    -0.09190119    -0.66527799
O      -7.77929932     0.08119175    -6.21190190     2.08078754    -0.77166930     0.28402582
O      -3.91249306     8.72355011    -5.84849239    -0.09626374     0.48737548    -0.69337660
O      -1.91243253     4.13532258    -3.83411217    -2.25065241    -0.66641935    -0.21966419
O      -9.65065999     4.60185645    -4.18166013    -0.73907122    -0.34526102     0.38906294
O      -5.80068327     4.08047727    -3.86589985    -0.96371417     0.30443705    -0.20584110
O      -5.96106928     4.42603921    -8.09390111     0.87513971    -0.10366953     0.17255976
O      -2.08370476     0.32393254    -4.01005852     0.04512781    -0.74820773    -0.21819867
O      -5.92718098     8.53810858    -8.06347860    -0.00913958    -0.20468341    -0.54912489
O      -6.03455342     0.01808785    -3.99298914     0.44336624     0.19404930    -1.26889256
O      -5.90741334     0.54095797    -8.16519391     0.59692798     1.14090827     0.42313728
