# total energy = -630.95326103 eV

CRYSTAL
PRIMVEC
        0.00279571     0.02951795    -7.98606283
       -7.83802570     0.01298533    -3.99532603
       -3.92160916     8.71933433     0.00634407
PRIMCOORD
56 1
Li     -3.88774041     2.36835574    -1.92254191    -0.42559325    -0.08371183     0.17566924
Li     -3.89079208     2.09630678    -6.04084761    -0.41150741     0.27144350     0.03056324
Li     -7.79908139     2.47434523    -9.94021817    -0.78878346    -0.20677429     0.23503812
Li     -7.69079528     2.41819734    -5.70502885    -0.39840827    -0.36360444    -1.51244018
Li     -3.93709190     6.53801609    -1.91736465     0.09393370     0.19724087    -0.46042166
Li     -3.97514138     6.51570051    -5.91981169     0.35653922    -0.19333897     0.12452307
Li     -7.85501740     6.55756977    -9.95618487    -0.79647994    -0.33739351    -0.12100304
Li     -7.81117512     6.25778488    -5.91643005     0.02767347     0.68768827     0.14992737
Ti     -2.13681659     2.19101761    -3.99730620     0.96843108    -0.72960880     0.15235042
Ti     -5.86124159     6.61888854    -8.01362995    -0.28285219    -1.64602085     0.67404469
Ti     -7.73358592     4.30987760    -7.69350963    -0.15552244    -1.25563748     0.42637483
Ti     -7.64734321     4.36623080    -3.75688511    -0.91868535     0.40729322    -0.03646166
Ti     -3.70722195     4.36702614    -7.76037645     0.23545014     0.14124610     0.82339988
Ti     -3.88307870     4.53429930    -3.72449086    -0.21793701    -0.88744672    -0.77497026
Ti     -6.19250551     8.69561677    -1.96517392    -0.53330974     0.45273514    -2.27621893
Ni     -5.83691197     2.40359144    -8.04260804    -0.42370841     0.53866396     0.37677253
Ni     -5.85913187     2.09399124    -3.95393592    -1.22189851     0.13012285     1.04631835
Ni     -9.79005131     6.59798279    -7.94735815    -0.20090878    -0.07148884    -0.83002539
Ni     -9.73792350     6.47982932    -4.20263471     0.29483723     0.03228148     1.34296026
Ni     -1.95728300     2.19318612    -7.97062851     0.30119807    -0.12073320     0.19331177
Ni     -5.92232935     6.61261058    -3.93979624     0.54674278     0.85034179    -0.58550817
Ni     -6.00881889     8.65269040    -5.96961358     0.73916582     0.20008705     0.84076447
Mo     -6.11018164     0.14887907   -10.27614920     0.42303917    -1.49842880     0.21219546
Mo     -9.75813215     8.72207195    -6.38983821    -0.12016920     0.18204324    -0.79197079
O      -1.92646367     1.87208584    -1.98657767    -0.16902108     0.31045209     0.54536959
O      -1.99095342     1.80302586    -5.90115451    -0.25514534     0.15501384    -0.90517279
O      -5.95192241     6.73265972    -1.96361838     0.57478150    -0.10077048    -0.49679453
O      -5.87872882     6.82069049    -5.92552096    -0.39516383     0.07988616    -0.74691214
O      -5.98750765     2.08195007   -10.07527588     0.97721379    -0.45216765    -0.18016817
O      -5.79133171     1.76752255    -5.72526374    -0.01595269     0.95922913    -0.83758830
O      -9.80953500     6.94489724    -9.80978936    -0.42467975     0.68666291     0.02910260
O      -9.75348692     6.81383447    -6.12043263     0.43117393    -1.31464410     0.67970785
O      -4.07084902     2.43347008    -3.89917262     2.13912517    -0.31127329    -0.35596087
O      -3.95078797     2.46032356    -7.96576975     1.36385816    -0.15378840    -0.24008690
O      -7.79944805     2.40222878    -3.94641884    -0.44272835    -0.34862364     0.51695722
O      -7.74192749     2.37533241    -7.90793883    -0.55750059     0.75792377    -0.27151699
O      -3.89175659     6.40422075    -3.91837674     0.64659907     0.38030193    -0.13515388
O      -3.95656416     6.30544419    -8.03618752    -0.04784651     0.52543176     0.25146716
O      -7.80673405     6.37028404    -3.91105354    -0.64413843    -0.05661171    -0.77026021
O      -7.85849085     6.16463557    -8.07026332     0.31227876     1.33859449     0.86253276
O      -4.01773823     4.31864516    -1.98005851     0.06529760     0.33457863     0.10811111
O      -3.93706360     4.36971197    -6.00082857     0.63175944     0.06206135     0.09367208
O      -7.87006389     4.37756927    -9.99601290     0.09729893    -0.19524119     0.47384537
O      -7.87164119     4.36738811    -5.89846043    -0.05247806    -0.16438405    -1.02179077
O      -8.00151580     8.74212636    -9.98730910     0.48961528     0.51701583    -0.04678007
O      -7.86427233     8.57248459    -6.24107435    -0.06002968     0.51719315     0.43243147
O     -11.52484645     8.60871178    -6.26304718    -0.33505979     0.08050944     0.76995959
O      -3.93009809     8.72527992    -5.91123992     0.18624334     0.22050069    -0.99544634
O      -1.96875663     4.04760238    -4.02245662    -0.37396582    -0.14614267     0.20084959
O      -9.66234563     4.57434728    -4.13622889    -1.09454225     0.42373137     0.41479689
O      -5.83735707     4.73790056    -4.13396457     0.66772073    -0.07265418     0.55304722
O      -5.83492312     4.28340047    -7.80834448    -0.20820233     0.78221195    -0.85895781
O      -1.98521003     0.11674066    -3.89996283    -0.45598065    -0.12600879     0.06767575
O      -5.96116288     8.38753468    -8.13145150     0.67211151     1.48304430     1.81665028
O      -9.73032522     8.40677482    -4.07413243    -0.67645452    -0.58409632     0.50718424
O      -5.80302758     0.64221210    -8.16773978    -0.11115402    -1.34915622     0.13831412
