# total energy = -630.65951145 eV

CRYSTAL
PRIMVEC
        0.00279571     0.02951795    -7.98606283
       -7.83802570     0.01298533    -3.99532603
       -3.92160916     8.71933433     0.00634407
PRIMCOORD
56 1
Li     -3.94498362     2.42015062    -1.94342708    -0.11574205    -0.31568245     0.51776313
Li     -4.19805867     2.41350855    -5.97457409     0.95679853    -0.49043190     0.07277333
Li     -7.84451843     2.06652843    -9.98459408    -0.28895137     0.14527233     0.25137414
Li     -7.69595664     2.23715327    -5.79565779    -0.35657625    -0.17788093    -0.45509471
Li     -3.95214973     6.51209243    -1.96929611     0.18841169     0.23315039    -0.04264845
Li     -3.87586948     6.29511333    -5.92252711    -0.20332536     0.35933895    -0.62532146
Li     -7.85334021     6.54649373    -9.97499918    -0.15394096     0.19953057     0.06469807
Li     -7.90512411     6.37177501    -5.92808210     0.47176558     0.04981964     0.00844867
Ti     -2.09626369     2.25730524    -4.01117368     0.05776126    -0.36168488    -0.42348584
Ti     -5.94816102     6.77644826    -7.93377599     0.54916949     0.99404625    -0.07538898
Ti     -7.82580289     4.25121452    -7.71927250     0.06230489     1.63230422     0.23191433
Ti     -7.82739232     4.43289842    -3.72079847    -1.48514711    -0.28012326    -0.47836846
Ti     -3.88760847     4.39340642    -7.72951021     0.49062674     0.16687175    -0.66320706
Ti     -4.07049926     4.45541500    -3.73480035     0.29459090    -0.24860876    -0.18736346
Ti     -1.91979811     0.02475543    -2.15289757     1.13566931    -0.02217555     1.32519202
Ni     -5.87485641     2.34832682    -8.01157179     0.20197382    -0.29309019     0.02882638
Ni     -6.02404320     2.22552092    -3.88274832     1.65363778    -0.38884878    -0.01105981
Ni     -9.72169706     6.47910201    -8.04777116    -1.34904982     0.13938307     1.70219140
Ni     -9.82228287     6.53239062    -4.11927871    -0.35307545     0.43056011     0.49734941
Ni     -1.90704006     2.19081895    -7.94510984    -0.53045309    -0.50427528     0.18046074
Ni     -5.97946269     6.58831926    -4.07677077     0.80285054     0.36819164     0.35361240
Ni     -1.92773274     0.03775535    -5.94251496     0.15568062    -1.77203424    -0.67260266
Mo     -9.85770090     8.73842786   -10.27731745     1.49217943     0.66204145     0.29906026
Mo     -9.62588961     8.59332495    -6.32951091    -3.15924124     0.50830234    -0.27265156
O      -1.77321079     1.99259295    -1.94716095    -1.21331648    -0.71455985    -0.44529046
O      -1.92236694     1.80032066    -6.00017921    -0.64113018     1.41385721     0.22700994
O      -5.85328362     6.87853288    -1.93076013    -0.97199453    -1.43530448    -0.89406501
O      -5.85602054     6.91754551    -5.99525787    -0.13108123    -0.41817265     0.49623841
O      -5.96503249     2.09505360    -9.98071389     0.37014334    -0.86979037    -0.57493981
O      -5.85321993     1.75893504    -5.77480002    -0.58409547     0.42360502    -0.00128902
O      -9.83297919     6.86711828    -9.81694115     0.53232388     0.38791604    -0.78645234
O      -9.75319069     6.69811009    -6.05698187    -0.31737137    -0.33717721    -0.51977735
O      -4.02696555     2.38973322    -3.90743945     0.02571595    -0.02962415     0.11118391
O      -3.82854088     2.47918578    -7.97077143    -0.15184810    -0.36781817    -0.43640982
O      -7.85278046     2.42411136    -3.92541881    -0.46777646     0.62253199     0.25752831
O      -7.96879907     2.42080755    -8.02480643     1.16316789    -0.62350414     0.18389393
O      -3.90039111     6.28341464    -4.16379108     0.52809214     0.28417131     1.53839544
O      -4.04554615     6.38250794    -7.91863020     0.38076964    -0.59996089    -0.01183400
O      -7.87866076     6.41352685    -4.03761095     0.06156565    -0.06692883     0.34113177
O      -7.84662372     6.35054623    -7.86321422     0.25013747    -0.31775194    -1.02611037
O      -3.95551082     4.50324608    -1.97086522    -0.20421868    -0.59436792    -0.70176928
O      -3.89111704     4.16983138    -5.98309043    -0.14160275     1.36969637     0.52532782
O      -8.10112089     4.62601999    -9.98132409     0.70428642    -0.40713088     0.47971817
O      -7.89904171     4.45173249    -5.95123390    -0.06513575    -0.70014650    -0.85684364
O      -4.06721916     0.07761513    -9.87522021    -0.21622211     0.13629804    -1.01856234
O      -7.88894509     8.53190302    -6.09783154     1.40352478     0.63623230     0.18886534
O     -11.59904434     8.52739951    -6.19110870    -0.15893809     0.51535550     0.44181301
O      -7.70731363     0.04754869    -9.97626245    -0.45972012     0.32605944    -0.15123763
O      -2.04302084     4.07361180    -4.05931339    -0.08173236     0.60415622     0.42549832
O      -9.86126128     4.73591520    -4.11852764     0.48311345    -0.98306476     0.37431889
O      -5.96297642     4.57691758    -4.11297065     0.35683685     0.29356001     0.50207224
O      -5.90636993     4.24562378    -7.99359109    -0.14022292     0.19000535    -0.00299072
O      -1.93614775     0.09244298    -3.95514313    -0.71336273     0.52544867    -1.19773929
O      -5.76152652     8.58711442    -8.12511959    -0.34565245    -0.00885081     1.18294883
O      -9.79998753     8.37497172    -4.10882758     0.01793595     0.48903998     0.52171164
O      -5.82826236     0.53748518    -8.02170784    -0.01914677     0.00277218    -0.69561929
