# total energy = -630.44472058 eV

CRYSTAL
PRIMVEC
        0.00279571     0.02951795    -7.98606283
       -7.83802570     0.01298533    -3.99532603
       -3.92160916     8.71933433     0.00634407
PRIMCOORD
56 1
Li     -3.79575079     2.21196997    -1.82771241    -0.62908532    -0.19378533    -0.07231022
Li     -3.82586024     2.33355611    -5.86279415    -0.82720843    -0.07130581    -1.36566591
Li     -7.90063073     2.09066078   -10.08853339     0.32217826    -0.02523295     0.43774977
Li     -7.88033867     2.32856296    -6.01096634     0.42482576    -0.25643358     0.26918976
Li     -3.87153987     6.45405023    -1.83380769    -0.13984564     0.00541584    -0.25894832
Li     -3.87016939     6.38779123    -5.93872670    -0.02191650    -0.00187231     0.35355331
Li     -7.76581533     6.43660610    -9.97166144    -0.24599835     0.33762677     0.92966398
Li     -7.83097332     6.38610270    -5.84530327    -0.41498218     0.11119924    -0.11877090
Ti     -2.02711751     2.28854818    -4.04210569     0.71460210    -2.25694791     0.00514212
Ti     -5.89775657     6.65999742    -7.90615931     0.39080502     0.31926311    -0.63081420
Ti     -7.90146922     4.42170629    -7.76360699     0.87270843    -0.14634443    -0.86502777
Ti     -7.82703568     4.38383382    -3.67631916    -0.05903131    -0.48466264    -0.15196105
Ti     -3.88313877     4.44951569    -7.75914008     0.72199827    -1.02981224     0.68316999
Ti     -4.01420611     4.39369896    -3.70273036     0.42720132     0.54195557    -0.11587295
Ti     -5.97112276     8.61450811    -2.20703444    -0.71693547    -0.10037532     0.46570136
Ni     -5.81713022     2.38689614    -8.06136762     0.10793789    -0.19271872     0.32443873
Ni     -5.89917969     2.25671274    -4.07245137     0.00746822    -0.86896166     0.33104719
Ni     -9.89729198     6.63301361    -7.94458805     0.61303128    -0.01254735     0.16064727
Ni     -9.66809002     6.51452110    -4.02182023    -0.73710125    -0.26750371     0.60111810
Ni     -1.86979878     2.31778084    -7.90850070    -1.51293895    -0.26667492    -0.08060288
Ni     -5.82083941     6.50682024    -4.02287048    -0.41100973     0.79281154     1.49225019
Ni     -6.08996069     8.52606427    -5.95119933     0.52873711     0.28153444    -0.27959487
Mo     -9.88858988     8.71758406   -10.23211199     1.12098938     0.98472359    -0.76050063
Mo     -9.89095544     8.66781085    -6.33278349     0.74383551     0.21689275    -0.27017743
O      -1.96929428     1.83298004    -2.07475751     0.34972185     0.78902695    -0.78398854
O      -2.05372089     1.57860000    -5.97528899     0.28154574     2.31536798     0.47158419
O      -5.77501577     6.68591729    -1.96579071    -0.40901561     0.41994752     0.20847175
O      -5.96052221     6.67214972    -5.86490551     0.25194842     0.45403855    -1.41058496
O      -5.82250726     2.01029996   -10.03384069     0.08418048     0.34070955    -0.71421628
O      -5.78193917     1.97527972    -5.94531260    -0.87773694    -0.06346493    -0.51704273
O      -9.78270789     6.87654467    -9.91340395    -0.10441339    -0.35335237     0.67845963
O      -9.84896582     6.67897355    -6.05269355     0.33352076     1.11861841     0.38091002
O      -4.01481248     2.42028812    -4.04033011     1.34726416     0.23679540     0.90841128
O      -3.78224439     2.47453051    -7.89076180    -0.24301548     0.53422715    -0.61205439
O      -7.90819581     2.40043675    -4.05445677     1.55562572     0.68295723     0.56281892
O      -7.78688043     2.47017523    -8.05450307    -1.06915762     0.16113267     0.16428501
O      -3.91997285     6.38620753    -3.85769130     0.68479727    -0.13652532    -1.11936488
O      -3.79753102     6.45335650    -7.88262064    -0.96624456    -0.94078990    -0.08920840
O      -7.79962278     6.33424497    -3.75090971     0.00707990     0.46183512    -2.47237033
O      -7.85713520     6.42354510    -7.99324681     0.35297744    -0.79304275     0.40050927
O      -3.79536779     4.51748774    -1.96583076     0.17095479    -0.90840125     0.19044342
O      -3.75635740     4.39935426    -5.96401811    -0.18752595     0.49319986    -0.54154517
O      -7.94628694     4.49707491    -9.91893401     0.47996891    -0.70728929     0.15904932
O      -7.73597242     4.40691976    -6.02937820    -0.31809992     0.10918819     0.21778178
O      -7.84205685     8.66943503    -2.03395982     0.11300986     0.00294506     0.37272963
O      -8.07726700     8.60018013    -6.25764857     0.12016334    -0.32156994     0.78507899
O      -7.78692071     0.05408952    -5.95913567     0.75962474    -0.45775941    -0.44176035
O      -7.69855511     0.12415118   -10.10189448    -0.25929665    -0.76179863     0.14478430
O      -1.98534845     4.10107159    -4.09627200     0.04752957     0.51960925     0.55966543
O      -9.67918249     4.47873979    -4.08939748    -0.79140945    -0.03429503     0.06105481
O      -5.82684152     4.58356545    -4.01453846    -1.40036689    -0.82880692    -0.04377543
O      -5.79083339     4.30926474    -8.08917660    -0.58598127     0.65336125     0.38014217
O      -5.90143847     8.72565238    -4.04725153     0.00952075    -0.12046205    -0.06209574
O      -5.76816155     8.41635202    -7.98247178    -0.64760211     0.30703424     0.48020086
O      -5.76707021     0.20436413    -4.07807827    -0.29758196    -0.03422694     0.38851885
O      -5.96080130     0.52324845    -8.12445204     0.08373535     0.43113076     0.16011033
