# total energy = -630.28553029 eV

CRYSTAL
PRIMVEC
        0.00279571     0.02951795    -7.98606283
       -7.83802570     0.01298533    -3.99532603
       -3.92160916     8.71933433     0.00634407
PRIMCOORD
56 1
Li     -4.01218681     2.06944617    -1.94286371     0.71858131    -0.00391375     0.39835304
Li     -3.96845048     2.25162271    -6.02521740    -0.38477867    -0.02134462     0.00291043
Li     -7.76778271     1.94443287   -10.03773827     0.02607471     0.14780698     0.14694686
Li     -7.91102173     2.06087238    -6.01270413     0.24310551     0.79267816     0.60177129
Li     -3.99755356     6.58163864    -1.88447423     0.77432352    -0.06881205    -0.47194657
Li     -3.78305713     6.31576583    -5.87418156    -0.78238018     0.12503684    -0.22294031
Li     -7.77733722     6.46390849   -10.02908621    -0.16898999     0.25353096     0.24418448
Li     -7.97045888     6.83606041    -5.90863973     0.61027925    -0.89061373    -0.25877756
Ti     -2.06917527     2.51024611    -4.13974449     1.62156485    -0.20416668     0.06699775
Ti     -5.82010904     6.66748692    -8.00123542    -0.57574824     0.81636320     1.19068729
Ti     -7.63959010     4.36172017    -7.82131065    -0.69698367     0.48599913     1.47384009
Ti     -8.03181640     4.31506371    -3.67300181     0.93653605     0.12952726    -1.06182814
Ti     -3.84351528     4.20814670    -7.75427659    -0.48996661     0.38530258    -1.20957252
Ti     -4.18909557     4.49055553    -3.60046833     0.76375241     0.77746164     0.06086164
Ti     -1.75357120     0.09104529    -2.36114730    -1.47771262    -1.36748408     0.29720292
Ni     -6.07476522     2.03149947    -7.96643366     1.44302197     0.17312238    -0.04832510
Ni     -5.84047955     2.38088311    -3.94071669    -1.20167569    -0.26466891    -0.15647776
Ni     -9.76640627     6.36200542    -8.10274496    -0.06091851     0.37300727     0.91036683
Ni     -9.82089672     6.66493319    -4.05115394    -0.15871385    -0.07321778     1.10676897
Ni     -1.97322094     1.99691255    -7.91913108     0.35209832    -0.91629026    -0.86275268
Ni     -5.94224550     6.54096179    -4.06519039     0.16072689     0.19393464    -0.01572050
Ni     -1.96607712     0.05434659    -5.95171749     0.22581842    -0.39369558    -0.73796421
Mo     -9.68268425     8.62596381   -10.30330170    -0.47602533     0.05017690    -0.62083832
Mo     -5.83502447     0.11453611    -6.19567065     0.55268326     0.53821140    -1.38658315
O      -1.99572666     1.90073898    -1.96469027    -0.30468132     0.23153905    -0.19181938
O      -2.00243317     1.90131588    -5.99932264    -0.15271652     0.59756085     0.12353632
O      -5.88823037     6.84961842    -2.15547925     0.07809285     0.34511898     1.23931493
O      -5.93197247     6.91067223    -5.94505673     0.28988027     0.15433847    -0.33135909
O      -5.80270443     2.03369487    -9.85767082    -1.29467839    -0.99452777    -0.54665901
O      -5.93794190     2.06501949    -5.93804638    -0.49854318    -0.77180755    -0.95046413
O      -9.81961324     6.69677779   -10.20332423     0.78004374     0.07682578     1.08721081
O      -9.88812110     6.95906631    -5.82971960     0.15449160    -0.71712520     0.19062311
O      -3.91531286     2.57917167    -3.94219611    -0.48179253    -0.98943952     0.11571825
O      -4.31289451     2.37598447    -8.04375165     1.66894004     0.31130659     1.05406818
O      -7.76973305     2.38353248    -3.96549551     0.56677913     0.02630152     0.20826276
O      -7.87738500     2.27500396    -8.05368447    -1.51857276     1.79330332     0.42064964
O      -3.91941336     6.37262872    -3.92265930    -0.25142943    -0.40498353    -0.81071201
O      -3.89294381     6.40007939    -7.88021791     0.16525189     0.09855382    -0.54730395
O      -7.87438898     6.27501374    -4.00121063    -0.21841547     0.25791023    -0.26702178
O      -7.76355526     6.46679372    -8.00089752    -0.39339105    -1.24266076    -0.14071413
O      -3.88574851     4.62509646    -1.88012533    -0.08929129    -0.69276638    -0.04794926
O      -4.03421275     4.26363054    -6.02321670     0.43398248     0.55251275     0.57242296
O      -8.04419803     4.52235656    -9.90610285     0.20246849    -0.32175854     0.71483919
O      -8.06510593     4.46919862    -6.07922182     0.61795887    -0.32062013    -1.65338324
O      -7.89460685     8.63563011    -9.84386210    -0.24323706     0.63558192    -0.66495151
O      -4.07042146     0.07458349    -6.01017453     0.39454838     0.44185836     0.18029516
O      -7.79849427     0.02565139    -6.05027942    -0.11967267     0.66592169     0.26883695
O      -7.52100997     0.04602582   -10.00581677    -0.46018345    -0.17957121     0.44419346
O      -2.09131522     4.39992650    -4.11617342     0.59670881    -0.43857619     0.16683052
O      -1.95897334     3.76013288    -8.01164969    -1.27500777     1.38340599     0.17931111
O      -6.03436809     4.29000350    -3.92283518     0.18569409    -0.39078307     0.02676012
O      -5.79836352     4.77292412    -8.00038120    -0.56841340     0.06811431    -0.08532674
O      -1.97641073     0.34845044    -4.13500418    -0.32727426    -0.02052901     0.38181616
O      -1.91638741     0.10227007    -7.82517079     0.07885256    -0.95923598    -0.12644992
O      -5.75707309     0.49010371    -4.05921049    -0.04285919    -0.03276039     0.43816231
O      -9.76331923     8.20041123    -7.91595287    -0.28352823     0.19393094    -0.98616085
