# total energy = -630.86517501 eV

CRYSTAL
PRIMVEC
        0.00279571     0.02951795    -7.98606283
       -7.83802570     0.01298533    -3.99532603
       -3.92160916     8.71933433     0.00634407
PRIMCOORD
56 1
Li     -3.93433170     2.45291359    -2.09660794     0.00869394    -0.87324856     0.85082558
Li     -3.89346982     2.23277766    -6.15969241     0.14550920    -0.26035638     0.57583062
Li     -7.86889908     2.28558799   -10.09924926    -0.18644210     0.04028958     0.13730322
Li     -7.67981600     2.10029927    -5.91103251    -0.42708966     0.19222027    -0.06700501
Li     -3.98628605     6.57415902    -2.08198856     0.51521221    -0.31713990     0.68504038
Li     -3.75266676     6.28602517    -5.92764097    -0.20622236     0.14578946     0.12721265
Li     -7.84324892     6.57079369    -9.94810080    -0.03690983    -0.11985912    -0.23589172
Li     -7.87427921     6.38791300    -5.90559762     0.13830613    -0.03247117    -0.28988232
Ti     -1.93200521     2.06892357    -4.05324703    -0.82432836     0.39622264    -0.44417495
Ti     -5.91057217     6.53045396    -7.94003196     1.21138043     0.37701921    -0.27201585
Ti     -7.94659408     4.33565025    -7.80908666    -0.34279996    -0.30980381     1.34047208
Ti     -7.88112750     4.43514925    -3.76856699    -0.00966929    -1.04695289    -0.57587406
Ti     -3.84936779     4.30647527    -7.70919385     0.45835349     0.25733863    -1.05176722
Ti     -4.00984070     4.34656857    -3.79738404     0.30639395     0.02663950     0.66270586
Ti     -6.04596812     8.72396177    -2.00573174    -1.21693885    -0.30592445     0.16007200
Ni     -5.90977251     2.52507152    -7.97521048     0.42219860    -1.27747322    -0.81718401
Ni     -5.86577574     2.34701783    -4.05789865    -0.17948290    -0.70527899    -0.26435441
Ni     -9.76253600     6.67775862    -7.83308480    -0.56438426    -0.80470142    -1.74034671
Ni     -9.78793460     6.51217379    -3.99979685    -0.38249692    -0.17803246    -0.37059156
Ni     -1.90080347     2.14402441    -8.04397531    -0.58369402    -0.32084130     0.21149661
Ni     -5.78005871     6.60409332    -4.00884991    -1.02510802    -0.33860476    -0.13390104
Ni     -6.03421477     8.64292739    -5.96997563     0.84975876     0.68135659    -1.38230266
Mo     -6.03239499     0.11147796   -10.14215680     1.15653556     0.16741899    -1.10877597
Mo     -9.79499092     8.63428754    -6.37091392    -0.46703037     1.07394813     0.04813725
O      -1.84439763     1.86986580    -1.96196213    -0.21727390     0.55279317    -0.93068941
O      -1.99377195     1.81991996    -6.13476203    -0.18097569    -0.49363199     1.08587599
O      -5.81062635     6.82442942    -2.02331629    -0.51204811    -0.98972095    -0.24483059
O      -5.87972529     6.79507051    -5.97857952    -0.11654685     0.24418787     0.13272243
O      -5.98726500     2.06526486   -10.08965999     0.95010725     0.26557981    -0.38434211
O      -5.73724539     2.00680827    -6.07288112    -0.90061174     0.02847956     1.36761933
O      -9.71906379     6.91821220    -9.76125332    -0.49305523     0.42309765     0.78880179
O      -9.85840270     6.72095316    -6.00334535     0.39981419     0.17369507     0.49257813
O      -3.92781271     2.32097832    -4.01453817    -0.22026370     0.42324218     0.03600947
O      -3.83924644     2.44636371    -8.12636171    -0.01225970     0.01081644     0.49078358
O      -7.88357736     2.47382947    -4.04849749     1.01681817     0.06725500     0.25678305
O      -7.92263568     2.28179375    -7.93815612     0.69234124     0.92544944    -0.77016934
O      -3.81932760     6.35387779    -3.98750807     0.49422507    -0.09068524    -0.04717152
O      -3.96581292     6.20387489    -7.95382020     0.11813867     1.20227385     0.09616051
O      -7.92010978     6.29325864    -4.09144731     0.51820578     1.73905175     0.76691171
O      -7.81611045     6.28726554    -7.94166500    -0.82198354     0.82108985     0.00169733
O      -3.77572472     4.29701610    -2.02777506    -0.46921468     0.48962687    -1.13014634
O      -3.72634303     4.26355584    -5.95153485    -0.44572236     0.20037623     0.18941526
O      -7.88883725     4.50016591   -10.00909630     0.17092721    -0.53184388     1.31726573
O      -7.86092097     4.36756237    -6.03629883     0.06181749    -0.07994693    -1.10288175
O      -3.93579550     0.08465102    -2.00090670     0.54321057    -0.10838948     0.40114998
O      -8.03340936     8.64445199    -6.05632990     0.73732379    -0.09716580     0.18739514
O     -11.55100796     8.72494414    -5.83539754     0.75014312     0.23676163    -0.74919063
O      -7.75740946     0.14802169   -10.09962949    -0.90953114    -0.62078208     0.22947924
O      -1.99748244     4.00440857    -4.02352303     0.42775219    -0.39692879    -0.25458256
O      -9.77897736     4.67001022    -4.01233547    -0.60653628    -0.49960744    -0.14526211
O      -5.90219944     4.67156556    -4.02723577     0.60093128    -0.11235054    -0.12385154
O      -5.93998892     4.46362474    -8.04075588     0.95290637    -0.79435141     0.28152207
O      -5.85073437     8.65386638    -4.05349066     0.17739751     0.96561634     0.83365657
O      -5.72840738     8.39452950    -8.07970562    -0.85938364     0.02460877     1.09833735
O      -9.65855841     8.45255242    -3.88110268    -0.43926430    -0.07962615    -0.60119857
O      -5.85038777     0.63742666    -8.12034386    -0.31235770    -0.21389670     0.46038929
