# total energy = -630.80259860 eV

CRYSTAL
PRIMVEC
        0.00279571     0.02951795    -7.98606283
       -7.83802570     0.01298533    -3.99532603
       -3.92160916     8.71933433     0.00634407
PRIMCOORD
56 1
Li     -3.93469763     2.32566981    -1.94981079    -0.19780806    -0.19785043    -0.11367259
Li     -4.01328517     2.22097170    -5.99604609     0.77318762     0.08657456    -0.22465550
Li     -7.79172648     2.43557443    -9.97509519     0.07334880    -0.39885672     0.00200939
Li     -7.91536406     1.92327166    -5.92204894     1.17827617     0.57491301     0.04382649
Li     -3.99474067     6.44450855    -2.04325197    -0.06495311     0.08852465     0.38628798
Li     -3.74232246     6.47214359    -5.91672968    -0.79781287    -0.43097419     0.10904855
Li     -7.85514631     6.60361971    -9.94764076     0.06236066    -0.16927159     0.25319960
Li     -7.86381599     6.66226360    -5.82932649     0.00546187    -0.25300820     0.04997644
Ti     -1.94819430     2.24435745    -4.14363390    -0.59381651    -0.79500237     0.69572960
Ti     -5.86223609     6.67683845    -7.86375963     0.06941339     1.12905010    -0.29807850
Ti     -7.87822172     4.43766144    -7.60746998     0.86939469     0.41242534     0.23250456
Ti     -7.77266294     4.39582325    -3.65173066     0.13350694    -0.32827582    -0.42592594
Ti     -3.90925488     4.31344763    -7.79896874    -0.07615187     0.71888110     1.03343050
Ti     -3.95929138     4.41626582    -3.75333150    -0.30848107    -0.17993313    -0.95319061
Ti     -6.02538544     8.71663684    -2.14920849    -0.34414397    -0.96689869     0.14774055
Ni     -5.89561583     2.34247820    -7.91702643    -0.39610898     0.05236657    -1.89521604
Ni     -5.84557235     2.22546094    -4.06691460    -1.26293755     0.21268790     0.26427896
Ni     -9.73239635     6.59683379    -7.80498325    -0.77057770    -0.35257577    -1.00161269
Ni     -9.77089099     6.14922845    -4.10469913    -0.34595855     0.50414413     0.82065115
Ni     -1.90035165     2.23911604    -8.07580198    -0.58541077     0.00355077     0.63235870
Ni     -5.91179322     6.72895382    -4.08104478     0.32818030    -0.43044087     1.87999028
Ni     -2.03599565     0.02592543    -6.05398873     0.47694536    -0.43307364     0.67036632
Mo     -9.88450432     8.70362824   -10.21722921    -1.28160804     0.71306674    -0.11014279
Mo     -9.81668239     8.66261092    -6.34250095     0.47166639     0.21937322    -0.19694078
O      -1.82852143     1.87554343    -2.04088396    -1.84247500     0.43671168     0.04381071
O      -1.94211786     1.85750340    -6.01035018    -0.26916385     0.14764763    -0.65864661
O      -5.89132733     6.77481211    -2.12325363     0.63349367     0.14291240     0.65143980
O      -5.95324203     6.84915213    -5.89001155     0.50384895     0.54263125    -1.61793174
O      -5.89122176     2.06759566   -10.06210927     0.43543093    -0.80188742     0.20353581
O      -5.79145067     1.97535652    -6.03795116    -1.23610277    -0.22562242     0.93045707
O      -9.79370704     6.85312706    -9.80605129     0.35739586     0.92949035     0.17804444
O      -9.89154698     6.75498806    -5.92763101     0.60864138     0.17333071    -0.11719669
O      -4.01229277     2.37705133    -4.08583667     2.11911262     0.58450084     0.61073079
O      -3.91257104     2.44628006    -8.00693210    -0.02298739    -1.04988515    -0.05396123
O      -7.90140969     2.43514848    -4.05293109     1.44360790     0.17768671     0.37203813
O      -7.89630715     2.48893198    -7.91632820     1.10368139    -0.61967472    -0.19773791
O      -3.80885385     6.36234515    -3.97879453    -0.07337140    -0.16249972     0.22735873
O      -3.95089403     6.34375149    -7.86682638     0.13132076    -0.24768089    -1.02765234
O      -7.82586397     6.34121269    -3.86736854    -0.62241484     0.02191167    -0.80520000
O      -7.82037346     6.52493798    -7.87710480     0.20070010    -1.11281423    -0.23968656
O      -3.98347553     4.31318008    -2.01371667     0.69141897     0.49503448     0.64580203
O      -3.82318312     4.40267793    -6.03749859    -0.15049725    -0.12829061     0.20199062
O      -8.05000976     4.42022176    -9.88515163     0.55273421     0.22446278    -0.54077552
O      -7.90339794     4.63679138    -5.86881583    -0.07897805    -0.22848467    -0.69864077
O      -7.84333097     8.63599486    -9.98339535    -1.09499715     0.87252234    -0.00398457
O      -7.97139724     8.67751925    -6.10675327    -0.71173110     0.04618977     0.05761315
O      -7.70152667     0.06029411    -6.10890135     0.15497482    -0.67394003     0.25392155
O      -7.77213868     0.12436745   -10.14138578     1.35923013    -0.83176096     0.41447815
O      -1.90314842     4.08448046    -3.98795463    -2.01146167     0.83492642     0.15880699
O      -1.92255748     4.18830097    -0.07850158    -0.52587314     0.32180359    -0.28829610
O      -5.84454357     4.30026692    -3.92131637    -0.48976794    -0.64714500    -0.71305556
O      -5.96415413     4.42519399    -7.96639157     0.79274407    -0.09810417     0.14514571
O      -2.03633644     0.16447876    -4.03913406     0.33376220     0.43811416    -0.19401753
O      -5.76528915     8.57472592    -8.01472457    -0.40570449    -1.12588057    -0.25375673
O      -5.84050595     0.16193717    -4.02408978     0.20564931     0.71954340    -0.25620141
O      -5.96300718     0.44956603    -8.15840464     0.54638413     0.87287800     0.63446056
