# total energy = -630.64958287 eV

CRYSTAL
PRIMVEC
        0.00285542     0.02004370    -7.95977623
       -7.82940539     0.00763210    -3.98158109
       -3.91729101     8.74642787     0.01461334
PRIMCOORD
56 1
Li     -4.03503162     2.36517524    -1.95194514     0.58036929    -0.00106968     0.30952641
Li     -3.83685323     2.25987657    -5.94018309    -0.35403700     0.01288713    -0.24464902
Li     -7.80469407     2.28742480    -9.96415295    -0.26350801     0.37612425     0.16598413
Li     -7.78584480     2.15073589    -5.96747866     0.13943238    -0.14315659     0.41420675
Li     -3.88286359     6.27697325    -2.13025264    -0.14196780     0.60123442     0.87495385
Li     -3.90148182     6.43477542    -5.86349519     0.49426014    -0.10071386    -0.16633363
Li     -7.87142134     6.37554240    -9.96266629    -0.05309848    -0.30436871    -0.03429093
Li     -7.72240791     6.60954496    -5.86254128    -0.14377574     0.09062915    -0.17414332
Ti     -1.95584261     2.07548032    -4.00494690     0.26308436     0.46397943    -0.07171744
Ti     -5.87303615     6.69755479    -7.96923569     0.81704615    -1.54429811    -0.15679106
Ti     -7.89169100     4.28728563    -7.72608995    -0.11342651     1.14697665     0.74247403
Ti     -7.90371762     4.24201813    -3.88568599    -0.42412914     1.14239969     1.72210687
Ti     -3.92187132     4.43386587    -7.67945628     0.76905513     1.15331939     0.88528967
Ti     -3.91783715     4.28713583    -3.80580588    -0.61259928     2.44309799    -0.46329145
Ti     -6.22193122     8.71897421    -2.04035902     0.01959232    -0.06835041     0.33564925
Ni     -5.78356397     2.51285357    -7.92499322    -0.96598040    -0.53522440    -0.32802485
Ni     -5.85839179     2.23285563    -3.90581148    -0.43110367    -0.04466067    -1.32990057
Ni     -9.75233695     6.56554058    -7.81552577    -0.50399107     0.08195267    -0.77855069
Ni     -9.67328082     6.48220424    -4.12012169    -1.66955553     0.55617337     0.79224877
Ni     -1.91276617     2.09053409    -7.99242672    -0.60464188     0.10052842     0.37673502
Ni     -5.80748454     6.58708138    -4.06366356    -0.05683774    -0.13033398     1.17729840
Ni     -5.92229297     8.75845353    -5.98260944     0.21032453     0.53733497     0.23189106
Mo     -6.07919595     0.07142432   -10.12096565     1.53659925     0.09273500    -0.25042897
Mo     -5.86805682     0.01685079    -6.36063545    -0.97428011    -0.44463645     1.28176875
O      -2.04928781     1.87415660    -1.99946322     0.94605527     0.83270275     0.43476931
O      -1.95803778     1.85709893    -6.03164073    -0.34528342    -0.00545457     0.06781982
O      -5.81941559     6.85076130    -2.08933037    -0.49222556    -1.15284792     0.00585378
O      -5.72164403     6.94123970    -5.96209732    -1.05974809    -0.55759769     0.19694953
O      -5.88386912     2.10469385    -9.98761073     0.01520385    -0.51192101     0.02479061
O      -5.77174037     2.01624477    -5.89069867    -0.38311564    -0.59552035     0.33919766
O      -9.78466682     7.00129386    -9.77860757    -0.12342989    -0.14001343     0.97971129
O      -9.78096749     6.79069754    -5.96115878     0.62674523     0.35915490    -0.75043895
O      -3.95840508     2.43252204    -3.95300764     0.80963103    -1.93573963    -0.36551805
O      -3.86067951     2.59414455    -7.94211513     0.29125959    -1.45590421    -0.18242813
O      -7.81412238     2.32070938    -3.94260742    -0.18158404    -0.39954852    -0.38451660
O      -7.85851847     2.37040316    -7.94416722     0.24190866    -0.46729679    -0.24692050
O      -3.81946078     6.35187433    -3.99697162    -0.12839113    -0.08558055     0.23197415
O      -3.92287844     6.44141375    -7.94877374    -0.24609471    -0.33977680    -0.05163034
O      -7.83798877     6.28038932    -3.98926932     1.19520856    -0.03750124    -0.48928449
O      -7.82126932     6.29204462    -7.84198951    -0.12153746    -0.12360476    -0.34722337
O      -3.76782052     4.38902869    -2.06492355    -0.12020897     0.00200899     0.87077840
O      -3.54238070     4.45136258    -5.90528539    -1.18574725    -0.00642595    -1.10842870
O      -7.93582716     4.33370702   -10.01048478     0.52551711    -0.12794903    -0.68673534
O      -7.58280968     4.10928252    -5.96592512    -0.79498618     0.66244756    -0.31434127
O      -4.07374602     0.08919616    -9.86187977    -0.48867515     0.09930923    -0.18669470
O      -7.97543467     8.72116540    -6.07458296     0.76103917    -0.22902865     0.21611240
O     -11.53980867     8.66974210    -5.83063490     0.85114525     0.91249574    -0.92304166
O      -7.80381876     0.20034257    -9.87446217    -1.20965119    -0.49873172    -0.44340477
O      -1.92324315     4.09231310    -3.99721539     0.35932017    -0.53623306     0.40240803
O      -9.86067779     4.68625847    -4.14886088     1.91587437    -0.33817332    -0.09366460
O      -5.83768812     4.25915243    -3.85901876    -0.79029857     0.13905985    -0.88782730
O      -5.86360057     4.53391859    -7.87717071     0.62891792    -0.78509155    -0.56515034
O      -2.12439058     0.18382775    -3.88748984     0.47775632     0.16402025    -1.89286760
O      -6.08673283     8.44831491    -8.10726145     0.66268240     1.43112350     1.46316046
O      -9.72030331     8.60756565    -3.90800788    -0.26648467     0.16317840    -0.32361291
O      -5.90815851     0.64437147    -8.06897557     0.19988158     0.27378216    -0.17423261
