# total energy = -630.68530319 eV

CRYSTAL
PRIMVEC
        0.00279571     0.02951795    -7.98606283
       -7.83802570     0.01298533    -3.99532603
       -3.92160916     8.71933433     0.00634407
PRIMCOORD
56 1
Li     -3.89686794     2.24442283    -1.84976797     0.23991867     0.16596668    -0.47502453
Li     -4.00477492     2.11043787    -6.02502389     0.53211069    -0.09430636     0.00011677
Li     -7.67002413     2.35415765   -10.03713788    -0.32165197    -0.18002367     0.40555498
Li     -7.79925120     2.13826567    -5.82863144    -0.02389002     0.12181097    -0.27093138
Li     -3.84594494     6.47256157    -1.96902636    -0.65897578    -0.04924938    -0.07278601
Li     -3.85822453     6.32193615    -5.81563414    -0.08528550     0.71874887     0.29729298
Li     -7.92434575     6.52415785    -9.84769169     0.35232932     0.04063634    -0.26708570
Li     -7.65900015     6.30914817    -5.85902865    -0.78737643    -0.01085793     0.04418510
Ti     -1.95263111     2.29946430    -4.06735396     0.07666596    -0.22599300     0.19387627
Ti     -5.85657578     6.80343654    -7.88477357    -0.32168387    -2.68287160    -0.85997566
Ti     -7.76911503     4.33065402    -7.71216143     0.38961863     1.50820811    -0.18692071
Ti     -7.90563260     4.31839906    -3.63047140     0.40861180     0.67272596    -0.66424622
Ti     -3.82519127     4.41700959    -7.71332696    -0.93446930    -0.01582558     1.08199987
Ti     -4.07781116     4.33821315    -3.70893122    -0.27773384     1.52068313     0.27652264
Ti     -2.21409138     0.01487673    -2.16921440     0.70820664    -1.24079211     0.40919441
Ni     -5.80577817     2.42612055    -8.02783391    -1.00174979    -0.37074009     0.02562293
Ni     -5.76579394     2.11541147    -4.13750210    -0.82800392     0.27786364     0.79664038
Ni     -9.73089768     6.46559843    -7.89219448    -1.01431567     0.37383191     0.98592410
Ni     -9.80849473     6.50607053    -4.17672290     0.59629333     1.15834294     1.57580012
Ni     -2.00604020     2.15754131    -7.94606869    -0.18333499    -0.29346907    -0.12837175
Ni     -5.98907237     6.68030359    -3.93087164     1.18465551    -0.82306108     0.37967459
Ni     -5.95805646     8.61788629    -5.96870412    -0.08368702    -0.06489819     0.16696377
Mo     -6.04758903     0.09035807   -10.25995563     2.37841452    -0.78628140     0.45042094
Mo     -9.78375530     8.64001348    -6.45668322     0.88699251     0.46420036    -0.01189103
O      -1.93148846     1.91154631    -2.01985565    -0.07136805     0.42404012     0.35091426
O      -2.05802009     1.67832295    -6.08533426     0.30105553     1.92201723     0.60065335
O      -5.90223025     6.73790421    -1.97189836     0.00927708     0.99219952    -0.34435278
O      -5.85292616     6.72446718    -5.90339076     0.01277292     0.85484258     0.23153343
O      -5.70636416     2.01717992   -10.20653468    -1.37170381    -0.51381758    -0.09147262
O      -5.82590015     1.94839579    -5.96308902    -0.28882731     0.01707558    -0.30060669
O      -9.73585111     7.06192066    -9.62834227    -0.65527108    -0.26671780    -0.74598212
O      -9.74271614     6.76509198    -6.00813707    -0.09352220    -0.26147486    -1.39066939
O      -3.84461122     2.38799932    -3.96531345     0.04199498     0.03431952    -0.76606164
O      -3.98393753     2.53344017    -8.00287563     1.90850308    -0.37299290     0.78519745
O      -8.00605932     2.33268595    -3.93091527     0.59547215     0.83952177     0.40433691
O      -7.81394459     2.48495757    -8.08253074     0.28088793    -1.52212870    -0.18797858
O      -3.99264431     6.38558958    -3.85967507     0.71830107    -1.10698779    -0.28695485
O      -3.94705795     6.39333613    -8.03454683     0.06881428    -0.05916466     0.56864710
O      -7.83762450     6.37757279    -3.92409400    -0.42895251    -0.99222305    -0.21388246
O      -7.81678141     6.41295263    -7.89587663     0.54480882    -0.73948608     0.42776650
O      -3.89798048     4.27060385    -1.95016955     0.11187298     0.59278699    -0.82525271
O      -3.84354951     4.52187576    -5.88991533     0.34660560    -0.93426872    -1.23812283
O      -7.92731817     4.51781681    -9.84505613     0.03434621    -0.58896590    -1.43767551
O      -7.77722297     4.28005102    -5.98465271    -0.18285484     0.45784007     1.03048641
O      -7.88538803     8.67127868   -10.01708534    -0.11795455     0.76841803    -0.12293243
O      -7.99472087     8.71882748    -5.95142780    -0.00625097    -0.08943697    -0.58500238
O      -7.62722072     0.05993026    -6.09259550     0.30933011    -0.36505391    -0.14385357
O     -11.65559656     8.71377490    -9.96503062    -1.62461360     0.58638765    -0.13850524
O      -9.73123665     4.25383043    -7.89986117    -1.11043926    -0.95883685    -0.45930496
O      -9.80414376     4.72810394    -4.06480648     0.69561423    -1.08689348     0.02431480
O      -5.97639033     4.14728528    -4.04100897     0.26694841    -0.18851109     0.45073318
O      -5.80553513     4.26022978    -8.01806422    -0.13017603     1.04713030     0.15939850
O      -1.99358521     0.29010419    -3.97748584     0.31146785    -0.32650638    -0.95728291
O      -5.85560645     8.51658544    -7.98589030     0.00626098     2.17311958    -0.03714705
O      -9.70267168     8.52636712    -4.07705775    -0.95516154     0.23365678     0.70229586
O      -5.64651977     0.64384723    -8.20239663    -1.03993526    -1.18060554     0.38683387
