# total energy = -630.39714110 eV

CRYSTAL
PRIMVEC
        0.00285542     0.02004370    -7.95977623
       -7.82940539     0.00763210    -3.98158109
       -3.91729101     8.74642787     0.01461334
PRIMCOORD
56 1
Li     -3.93418968     1.96285490    -1.89094132    -0.24624049    -0.07105828    -0.03349123
Li     -4.08825348     1.94433367    -5.81036634     0.90000076     0.37154210    -0.72947725
Li     -7.76935030     2.23945854   -10.02116759    -0.31340708    -0.12617790     0.85297928
Li     -7.74659879     2.35610167    -5.84270704    -0.39109994    -0.17993111    -0.35092292
Li     -3.83708540     6.48507273    -1.87078910    -0.10527206     0.46130141    -0.55530481
Li     -3.87990807     6.44018770    -6.00891120     0.02440306    -0.26752504     0.29775535
Li     -7.89123324     6.42618442    -9.87918001     0.60182813     0.26096976    -0.18700719
Li     -7.71739291     6.39767849    -5.83566041    -0.36065907     0.25801799    -0.16759933
Ti     -2.08887403     2.32295127    -4.04282081     1.47474657    -0.45714810    -0.27806164
Ti     -5.83000050     6.87460774    -7.88219564    -0.12713766    -1.07958005    -1.04278998
Ti     -7.78748183     4.39716719    -7.72743304    -0.41974788    -0.34178148    -0.69458568
Ti     -7.92918860     4.38221386    -3.64577145     1.58072355     0.62643802     0.87117272
Ti     -3.97455976     4.40000233    -7.87976138     1.06290751     0.29005710     1.99018923
Ti     -3.99782137     4.47330396    -3.69842050    -0.85589492    -0.45110882    -0.42780953
Ti     -5.89301134     8.70562432    -2.19243810    -0.13092376     0.35997827    -0.22335453
Ni     -5.84940350     2.40220755    -7.93670872    -0.63952861    -0.62741432    -0.61863584
Ni     -6.03007677     2.19273485    -3.97926347     1.93266953     0.03563802     0.10635313
Ni     -9.76709487     6.43575165    -7.88772097     1.42820361     0.40025566    -0.40332424
Ni     -9.78688913     6.52116994    -3.89171529     0.63764595    -0.50867696    -0.55612330
Ni     -2.03870722     2.37561699    -8.01313396     0.54849954    -0.81009912     0.84048732
Ni     -5.72261381     6.59022201    -4.01485243    -0.89335375     0.17779253     0.14696677
Ni     -5.85142870     8.70856693    -5.93374237    -0.05980357    -0.58417313    -0.27945492
Mo     -9.86650080     8.62045025   -10.09782658    -0.03527324     0.55221811    -1.36897885
Mo     -9.82252014     8.66188554    -6.40274325    -0.85403007    -0.20009055     2.74196776
O      -1.95473419     1.86192442    -1.96322354    -0.36617546     0.99730633    -0.77001330
O      -1.97630852     1.72943031    -5.98984962    -0.20925042     1.85892680     0.72596303
O      -5.85907789     6.87066240    -2.07604589     0.66927968    -1.78137294     0.52602558
O      -5.78858640     6.82456122    -5.98576245    -0.39937982    -0.17691271     1.15331748
O      -5.88276591     1.88036638   -10.01649911     0.07226045     0.84425502    -0.09276888
O      -5.85844614     1.90515285    -5.89482460    -1.55784246     1.09035124    -0.35287751
O      -9.81346410     6.71790687    -9.81896511     0.64346715     0.26656324    -0.34901734
O      -9.75244234     6.84621909    -6.02841262     0.02008770    -1.26502351     0.79895864
O      -3.97964195     2.48967395    -3.98282940     0.76562133    -0.87532676     0.35064858
O      -3.95411172     2.47721257    -7.88482911     0.41377495    -0.57055154    -0.76522289
O      -7.93266462     2.43644057    -3.91244921    -0.19221399    -0.18075168    -0.54863062
O      -7.85878157     2.45488279    -7.98756997     0.14584124    -0.03689524     0.42842625
O      -3.70404638     6.33242966    -4.04774269    -2.23816981     0.45000853     0.48989517
O      -3.88572746     6.48607461    -8.00611011    -0.82008237    -0.42008198     0.74750094
O      -7.84935728     6.27728021    -3.97146456     0.11212988     0.77546181     0.51696265
O      -7.76946411     6.35850810    -7.95957097     0.21749007     0.32376524     0.46303012
O      -3.63036487     4.61127667    -1.96714166    -0.41657261    -0.54042894     0.03143505
O      -3.87092063     4.48628043    -6.08610931    -0.06157639     0.25779037    -0.29815410
O      -7.65051690     4.44962108    -9.81906442    -1.09139878    -0.07201850    -1.57261235
O      -7.78551713     4.52222158    -5.97412906     0.53148810    -0.91361405     0.33425372
O      -7.84787842     8.60186486    -9.95761772    -1.33231510     0.67094461     0.01748056
O      -4.16030178     0.03025080    -6.09999825     1.25486108    -0.37875469     0.40696571
O     -11.65636301     8.68094228    -5.93883582     0.34014154     0.17453455    -0.67170412
O      -3.86147254     8.60171529    -5.95019301     1.64034581     0.21649433    -0.11705347
O      -1.94943149     4.20654385    -4.00533314     0.03585733    -0.63911565    -0.27351638
O      -9.74770097     4.36678159    -3.97522908    -0.93415124    -0.07358799    -0.08999548
O      -5.84690483     4.13138686    -3.81111663    -0.55948004     0.21057203    -0.66101002
O      -5.82620915     4.25417523    -8.13435061    -0.73465303     0.40715085     0.57180016
O      -1.94002727     0.20263424    -4.02810167    -0.18435230     0.27454151    -0.27250203
O      -5.85768742     8.61521867    -7.95905282    -0.14428826     0.91222711     0.26945865
O      -5.91428360     0.29643615    -3.99960094    -0.12598571    -0.52867301     1.30561419
O      -5.88180093     0.51719171    -8.08153634    -0.18632848     0.84571616    -2.20513100
