# total energy = -630.64739697 eV

CRYSTAL
PRIMVEC
        0.00279571     0.02951795    -7.98606283
       -7.83802570     0.01298533    -3.99532603
       -3.92160916     8.71933433     0.00634407
PRIMCOORD
56 1
Li     -3.87218485     2.28715070    -1.80407196    -0.26655088    -0.01790569    -0.51647892
Li     -3.71893910     2.03352896    -5.90000630    -1.96076512     0.00664760    -0.42272739
Li     -7.86438698     2.01534388   -10.00127015    -0.13294923     0.29368975     0.17802354
Li     -7.84906784     2.29703688    -6.03590910     0.09840951    -0.24013812     0.66346215
Li     -3.94497034     6.18858437    -1.82819669     0.10087668     0.18576621    -0.67967850
Li     -3.79784012     6.53622826    -5.85221821    -0.53770457     0.53378018     0.23859387
Li     -7.87182510     6.59908038    -9.85217061    -0.29696671    -0.18088408    -0.28684298
Li     -7.97533691     6.36833626    -5.82681902     0.22530673    -0.07540025    -0.22055611
Ti     -1.95393436     2.24718365    -3.94968954     0.42159186    -0.44068131    -0.20193371
Ti     -5.88350560     6.66494608    -7.85838074    -1.48824132     0.52642170     0.11914361
Ti     -7.74228045     4.34070931    -7.80584349    -0.31654961    -0.10533124    -0.11191017
Ti     -7.70951587     4.21756899    -3.70709433    -0.97958140     1.05722554     1.10251403
Ti     -3.84213795     4.43878893    -7.57934381    -0.14960457    -2.06790231    -0.69618512
Ti     -3.91117312     4.40943701    -3.85843148     0.44744546    -0.12056126     0.92381527
Ti     -5.85295416     8.64334257    -2.15274536    -0.09721061     0.45046724    -0.62426796
Ni     -5.88269770     2.37077127    -8.06830379     0.39497757     0.89990539     0.24128123
Ni     -5.86255989     2.20420630    -4.04677627    -0.40366740    -0.18386941     0.56689131
Ni     -9.87975461     6.79007962    -7.82264790     1.33817122    -0.53485111    -1.71529350
Ni     -9.81807701     6.43631463    -3.94508276     0.48248141     0.58703283    -0.14842463
Ni     -2.02254889     1.99217067    -7.94028813     0.32823487     0.48675240    -0.19458683
Ni     -5.98782116     6.45840774    -3.95621869     1.25880910     1.20353841    -0.21520552
Ni     -5.98149903     8.67010659    -5.96468257     0.36833613     0.20024733    -0.21740986
Mo     -5.91988706     0.09674283   -10.45362417     0.25645220    -0.59391630     1.91818808
Mo     -5.90729369     0.11671787    -6.33288354     0.12834378    -0.39173202    -0.67355753
O      -1.92877295     1.92030893    -2.03301667    -0.70561230     0.08521068     0.53926517
O      -2.01677490     1.81012041    -6.05551317     1.03934554    -0.38539823     0.11465044
O      -5.86202449     6.75866015    -2.03798580    -0.17189410    -0.05971590     0.47869401
O      -5.97623286     6.78524851    -5.91726661     0.09184123     0.46911357     0.06281922
O      -5.86306488     1.95112369   -10.17684305    -0.05926889     1.14732053     0.40449950
O      -5.87549376     2.02041966    -5.83609761     0.09936145    -0.52643041    -0.56115300
O      -9.81692732     6.97362186    -9.72642621     0.23887980     0.38116642    -0.33815720
O      -9.86830076     6.85042729    -6.04596625    -0.04523084     0.27263634     0.91163292
O      -3.95830300     2.36203349    -4.02157467     0.84240381     0.38900480    -0.27985052
O      -3.96880303     2.43685085    -7.87185175     0.72687468     1.15895936     0.04314328
O      -7.89916939     2.32796544    -3.94798888     0.23239793     0.21252081    -0.35312392
O      -7.78529560     2.25037689    -7.96857166    -0.81674023     1.53692972    -0.61951866
O      -3.77522665     6.38458089    -3.89848511    -1.39077924    -0.12138619     0.29417187
O      -4.05470824     6.35545305    -7.89619908     1.52866478     0.10219335    -0.44058920
O      -7.84812726     6.29356509    -3.85765356    -0.93331356    -0.56870560    -0.54439169
O      -7.84235623     6.26549642    -7.94880767    -0.12012446     0.58770900     0.37143603
O      -3.91494975     4.26056117    -2.09918647     0.29070675     0.50125829     0.39750363
O      -3.92882306     4.68568891    -5.85848345    -0.21576832    -0.87219879    -0.21261359
O      -7.83570852     4.32528183    -9.91322241     0.23931029    -0.37802738    -1.41347059
O      -7.83504193     4.23640919    -6.04234783    -0.39254247     0.47478461     0.59565450
O      -4.02452974     0.07140841    -2.07093020     0.10334302    -0.30772289    -0.41616494
O      -7.99069655     8.74094299    -6.16740929    -0.59029946    -0.05382383     0.48894223
O      -7.84363490     0.17755853    -6.16265743     1.26082619    -0.76934716     0.76961423
O      -7.75981997     0.09995264   -10.25752608     0.92371435    -0.47395590     0.51350765
O      -1.87242936     4.10159227    -4.19794959    -1.00494989    -0.74294669     0.65326401
O      -9.84373896     4.66058877   -11.84924729     0.90503011    -0.64820209    -0.49083230
O      -5.84576168     4.61955896    -4.01364506    -0.77882682    -0.76132835    -0.04270804
O      -5.84870441     4.38979934    -8.05495170     0.51591142    -0.22224814     0.24766839
O      -1.85838974     0.15794080    -4.04332593    -0.87291359    -0.13174228     0.33679207
O      -5.94332034     8.48509770    -7.98556192     0.05382703    -0.29764827    -0.69815908
O      -9.80063285     8.32097035    -4.18648777     0.11797573    -0.33046044    -0.22215635
O      -5.86393802     0.60254913    -8.13313544    -0.26754155    -1.00720489     0.43773122
