# total energy = -630.71874730 eV

CRYSTAL
PRIMVEC
        0.00285542     0.02004370    -7.95977623
       -7.82940539     0.00763210    -3.98158109
       -3.91729101     8.74642787     0.01461334
PRIMCOORD
56 1
Li     -3.88442224     2.04062105    -2.04524291    -0.40676979    -0.01928787     0.26089365
Li     -3.89054179     1.87412951    -5.95455441    -0.46097231     0.14701132    -0.76484082
Li     -7.75437173     2.20042681   -10.04935962     0.10778135    -0.04232384     0.23066153
Li     -7.89266573     2.56011304    -5.94213791     0.40732226    -0.71423872    -0.03896820
Li     -4.04256204     6.43265865    -1.85081331     0.35840261    -0.08045895     0.28402892
Li     -4.03183739     6.54319051    -5.70654854     0.21091854    -0.24812907    -0.33113528
Li     -7.85180043     6.59935944    -9.82811969    -0.24304586    -0.13861280    -0.16854134
Li     -7.93219307     6.64403550    -5.75310927     0.58655713    -0.52957168    -0.14957009
Ti     -1.99139990     2.32923993    -4.18271907     0.36681245    -0.35590856     0.29611262
Ti     -5.94684223     6.77888550    -7.82666472     0.54133546    -0.63078377     0.45691283
Ti     -7.76682823     4.38313734    -7.83575017     0.56119517     0.81446913     1.09294815
Ti     -7.77394648     4.38354622    -3.71245679    -0.21494587     0.90692097     0.26636137
Ti     -3.87296751     4.31347749    -7.63002780    -0.20997446     1.58639038     0.21130237
Ti     -3.88821027     4.39738069    -3.70476178    -1.64115988     0.08406057    -1.26030386
Ti     -5.76698588     8.74719711    -2.21665678    -0.78387575     0.37982379     0.37094256
Ni     -5.87510894     2.35451654    -8.14053146    -0.06169450    -0.49498774     0.42288567
Ni     -5.88010032     2.19159025    -4.10377870    -0.03864395     1.29876230     0.82530441
Ni     -9.90611324     6.58099935    -7.79625335     0.63657208    -0.34170862     0.01022403
Ni     -9.85038284     6.53611290    -3.82828897    -0.13271622    -0.72964501    -0.34020090
Ni     -1.88673021     2.22952483    -8.09557481    -0.82095806     0.48477739     0.63945785
Ni     -5.90837419     6.65907857    -3.82126402    -1.02829699    -0.11523486    -0.62520898
Ni     -5.77549615     8.74069354    -6.04116159    -0.40219520    -0.60133210     1.71288529
Mo     -9.83086109     8.63078359   -10.18837315     2.69073588     1.90032045     0.56367445
Mo     -9.82293774     8.61684401    -6.29885124     0.01943091     1.46275376    -0.36335353
O      -1.97963504     1.97172298    -2.16145666     0.53897971    -0.24806677     0.53330237
O      -1.85733199     1.83580674    -6.15360491    -0.49389938    -0.04822554     0.55702198
O      -5.97556572     6.85534636    -1.87124737     0.60011502    -0.33455160    -0.51793122
O      -5.93250995     6.84778529    -5.76942970    -0.01564162     0.58387302    -0.63553522
O      -5.80794388     1.99892918   -10.12878163    -0.26141622     0.19936997     0.47032961
O      -5.93811767     1.87808501    -6.01520146     0.00528129     0.29093721    -0.36865444
O      -9.84582084     6.82106988    -9.81152958     0.50635485    -1.46147682     0.59388939
O      -9.79882556     6.77140719    -5.82672755    -1.21747847    -0.42621881    -0.19323380
O      -3.92636254     2.36705319    -4.12728756     0.89217416     0.18711027     0.44812533
O      -3.98336015     2.49010936    -7.92980009     0.64924391    -1.48754625    -0.50206242
O      -7.82819777     2.41936355    -3.94926773    -0.43713151     0.16811285    -0.87092644
O      -7.81834304     2.46922985    -8.10700590    -0.32147590    -0.82963605     0.15722515
O      -4.03849940     6.36708939    -3.78725860     0.81300644     0.24017548    -0.55240117
O      -4.05665583     6.50058637    -7.68220290     0.59922867    -0.89614107    -1.19702154
O      -7.91951101     6.39718493    -3.86189537     0.42351972    -0.44412000    -0.01040630
O      -7.84271567     6.32948500    -7.89758647    -0.56776883     0.77607090     0.17576822
O      -3.83459676     4.45876189    -2.00139068     0.30826581    -0.15406847     1.41005166
O      -3.70878426     4.40038521    -5.88952761    -0.95753683     0.47192820     0.06694751
O      -7.90530518     4.46653511    -9.91165846    -0.20049729    -0.06891069    -0.79463707
O      -7.81805207     4.39183362    -6.04344742    -0.14465930     0.17380750     0.03185457
O      -3.95981609     0.03071863    -9.91359537    -0.44393284    -0.36769658    -0.39853573
O      -8.06742858     8.60299341    -5.96711531    -0.18530434     0.70513621    -0.02718981
O     -11.70439984     8.67036363    -5.84999628    -0.46196953    -0.12083586    -0.65825018
O     -11.52974492     8.68236298    -9.83070722    -2.15160962     0.43670942    -0.09754227
O      -1.94801238     4.22896171    -4.08504830    -0.15925956    -0.93741787     0.37187466
O      -2.02468487     4.48788128    -0.04393342     1.39587923    -0.20666613    -0.12338776
O      -5.86386878     4.14267128    -3.85789545    -0.06100142    -0.10801139    -0.89276244
O      -5.86000926     4.37222533    -8.16380187     0.36848049    -0.53619468     0.68232873
O      -1.99406884     0.19250405    -4.04048140     0.47540017     0.64223834    -0.87571941
O      -5.99857160     8.57862519    -7.87899077     0.27766221     0.53651814     0.00150828
O      -5.96452173     0.39737163    -3.98321026     0.22738084    -1.42159192    -1.32380730
O      -5.88969099     0.44971764    -8.12274617     0.12711147     0.50610549     0.96421950
