# total energy = -630.36111023 eV

CRYSTAL
PRIMVEC
        0.00279571     0.02951795    -7.98606283
       -7.83802570     0.01298533    -3.99532603
       -3.92160916     8.71933433     0.00634407
PRIMCOORD
56 1
Li     -3.96528821     2.31013910    -2.05903210    -0.00214219     0.34403844     0.29484585
Li     -4.14918801     2.28742732    -5.87584286     1.35306100     0.00506782    -0.54975341
Li     -7.88214943     2.17427634   -10.05355681     0.03735952     0.44149581     0.31907275
Li     -7.69780564     2.13013525    -5.94347040    -0.39610951     0.31619275     0.10463964
Li     -3.95825370     6.53547748    -2.03673374     0.18165460    -0.63161284     0.00010535
Li     -3.96357060     6.72155936    -5.92278331     0.21127559    -0.16953647     0.01004090
Li     -7.87216366     6.84558699    -9.93506920    -0.48456227    -0.41381035     0.04545988
Li     -7.92755570     6.50517996    -5.98649810     0.67858377    -0.16098326     0.40509144
Ti     -1.99262110     2.23629782    -3.94605454    -0.13896607     1.34731600    -1.21484754
Ti     -5.85661387     6.57482412    -8.04886438     1.25934588     0.66580514     1.09151052
Ti     -7.83513865     4.30004421    -7.69982676     0.23640438     0.76379258    -0.21895019
Ti     -7.93373561     4.45548334    -3.79054379     0.45932458    -0.93035944     0.64647251
Ti     -3.87960012     4.24474555    -7.68152983     0.36165526     4.31545135    -0.25885713
Ti     -4.17435027     4.43332938    -3.93035216    -0.18391277     0.09670454     1.90668460
Ti     -1.81360520     0.02048012    -2.11478768     0.72718742    -0.19126995     1.41126037
Ni     -5.83607831     2.29032080    -8.03618651    -0.39323960     0.72802350     0.00840373
Ni     -5.93020461     2.03480850    -4.03322109    -0.84341534    -0.10529680     0.99570161
Ni     -9.82348090     6.60607001    -7.86489471     0.37561957    -0.84620468    -1.02586746
Ni     -9.78369478     6.50962564    -3.93205791    -1.91401779     0.24002022     0.07363903
Ni     -1.85263949     2.17117809    -7.92551313    -1.92296437    -0.38267075    -0.18135044
Ni     -6.03082922     6.78805064    -4.00754459     0.52399484    -1.22038010    -0.35305056
Ni     -5.82615696     8.71288577    -6.04376600    -0.92559102    -0.80900496     0.68527177
Mo     -5.93128135     0.17733831   -10.22938207    -0.54320788    -0.71466628    -1.52738068
Mo     -9.70703417     8.59978553    -6.32601218    -0.01012092    -0.74969672     0.98460673
O      -1.93724906     1.96393998    -1.92351818    -0.06077343    -0.79582395    -0.77819905
O      -2.04287007     1.81119472    -5.85588682     0.35491762     0.09094223    -1.19221248
O      -5.98180335     6.80921774    -2.01351062     0.17722725     0.48443103    -0.07806729
O      -5.95254892     6.83382278    -6.04124179     0.51547385     0.69600203     0.43882666
O      -5.92220155     2.12852525   -10.04480529    -0.13566705    -0.71060169    -0.46720241
O      -5.84480002     1.78169092    -5.90242693    -1.28528508     0.61219752     0.18718850
O      -9.82463310     6.90544273    -9.74628559     0.46958252     1.07235424    -0.25716300
O      -9.85356705     6.70170529    -5.97070060     0.42971641     0.24816187    -0.26551231
O      -4.09782535     2.39250705    -4.08459551     1.38829232     0.09433647     1.31074875
O      -3.86596535     2.52181484    -8.02475236     0.36688263    -3.80511356    -0.22602086
O      -7.93160101     2.30453658    -4.00967497     1.70456050     0.61932342     0.03486404
O      -7.84304696     2.38812423    -8.00739844    -0.09478962    -0.67540365     0.42373415
O      -3.77516014     6.29260742    -4.04503090    -0.42242302     1.49395096     0.21464220
O      -3.93065683     6.45368096    -7.95714603    -0.70165883    -1.27877846    -0.00774277
O      -7.95533458     6.41597352    -3.90995352     0.01927070     0.28743454    -0.33603039
O      -7.77477531     6.26174371    -7.97089814    -1.14599635    -0.15690544     0.16792426
O      -3.82412760     4.43399655    -2.14689665    -0.35186303    -0.50987939    -0.64685911
O      -3.82065730     4.30399566    -5.91661747    -0.01015200    -0.12684287    -0.04545461
O      -7.68424859     4.23068092   -10.05453078    -0.32986612     0.04765616     0.23961766
O      -7.67806880     4.20944740    -5.92659387    -0.50331705     0.16629993    -0.91144812
O      -4.11936839     0.23160390    -2.18176909     0.36235764    -0.85091708     0.64295524
O      -7.96706196     8.64962236    -5.99651168     0.10655918    -0.39020567    -0.42295719
O      -3.87589368     8.57134130    -2.26983578    -0.35196050     0.57708457     0.85515322
O      -7.80341156     0.09621966    -9.95849216     0.55142649     0.11614423    -0.08048381
O      -1.89356279     4.12645194    -4.08066357    -0.20193540    -1.26208637     0.44339042
O      -9.83379391     4.62626798    -3.96066741     0.51273925     0.06816683    -0.13978887
O      -6.00582308     4.91810340    -4.08806232     0.68002656     0.18097199    -0.00721748
O      -5.76970093     4.27243709    -7.96124275    -1.23001148     0.25866025    -0.20472719
O      -2.05756419     0.04939392    -3.93446981    -0.20269648     0.31029756    -0.71963481
O      -5.89592214     8.45168494    -7.96983917    -0.16603814     0.28707508    -1.20165521
O      -9.98747154     8.39441239    -4.06607406     0.43065594     0.12773370     0.43755972
O      -5.87858693     0.47358553    -8.06030479     0.33048874     0.33530906    -0.93136555
