# total energy = -630.75186371 eV

CRYSTAL
PRIMVEC
        0.00279571     0.02951795    -7.98606283
       -7.83802570     0.01298533    -3.99532603
       -3.92160916     8.71933433     0.00634407
PRIMCOORD
56 1
Li     -3.94934310     2.41243282    -1.93389653    -0.13119708     0.02539895    -0.29914060
Li     -4.12971051     2.50281996    -5.95989936     0.44493750    -0.56584593    -0.07711604
Li     -7.94433877     2.24465014   -10.01847386     0.42841117    -0.00654820     0.10609313
Li     -7.83020833     2.08738827    -5.78901667    -0.16808681    -0.05592462    -0.27145716
Li     -3.99470767     6.59689641    -1.85554905     0.43042663    -0.15099621    -0.65367652
Li     -3.94791639     6.55300353    -5.79219191     0.19748157    -0.10876133    -0.59412999
Li     -7.74819494     6.19191950    -9.95248762    -0.51956497     0.72635546     0.30406930
Li     -7.85709522     6.53435144    -5.83979941     0.21582763    -0.12193175    -0.91133467
Ti     -1.91752873     2.14389956    -4.07554410    -1.37440365     0.24921308    -0.10556865
Ti     -5.91554576     6.74615599    -7.94978370     0.36472393    -1.28917764     0.81390344
Ti     -7.77036081     4.28395309    -7.62162074    -0.26915384     0.57866147    -0.58543001
Ti     -7.75342856     4.32001694    -3.69436967     0.64115275    -0.33971172    -1.02012172
Ti     -3.68097587     4.45867902    -7.73892110    -0.98527919     0.55343867     0.28427514
Ti     -3.92538153     4.44395532    -3.75681391    -0.00549769    -1.49565189     1.32169846
Ti     -2.27050417     0.02923859    -2.04210670     0.48421738     1.71475019    -0.65930022
Ni     -5.93496929     2.48216038    -8.00079922     1.10722041    -0.44367732    -0.30845838
Ni     -5.90076085     1.93684990    -4.09371188     0.44531881     0.80312060     0.93479964
Ni     -9.80121735     6.35184889    -7.92398357     0.38381015     1.09051685     0.38933127
Ni     -9.70779637     6.60721650    -4.11828589    -0.02204652     0.67016463     1.11604591
Ni     -2.01857068     2.17757398    -8.03370799     0.07764580    -0.23480027     0.90075930
Ni     -5.85526945     6.65048714    -3.95935344    -0.50549173    -0.44319410    -0.24140402
Ni     -5.93948725     8.68185742    -6.02208140    -0.65408146     0.03750734     0.40599135
Mo     -5.97356518     0.08417120   -10.20596879     1.02710187     0.03880831    -0.57293234
Mo     -9.81987920     8.63986025    -6.42388778    -0.20596443     1.26920436    -0.71935265
O      -1.97824550     1.96863804    -1.97653496     0.25079346    -0.19152047    -0.03990756
O      -2.04738793     1.74645822    -6.08268432     0.14049516     1.49590135     0.12505593
O      -5.86406408     6.94612408    -1.95228586    -0.29506119    -2.60067471    -0.50098347
O      -5.91642576     6.84902575    -5.95019116     0.53959093    -0.10045357    -0.14442225
O      -5.84071097     2.00818066   -10.19135475    -0.38913872     0.02115677     0.26102372
O      -5.92331851     1.98823396    -5.92278440    -0.08071678    -0.90496951    -0.24363313
O      -9.66402036     6.95617250    -9.80611813    -0.63742306    -0.35907923     0.51007288
O      -9.79328419     6.77064495    -6.01190894    -0.27214979    -0.61992835    -0.90469068
O      -3.96013025     2.28947665    -4.01408917     0.68822307     1.28885514     0.14653433
O      -3.98648580     2.60003666    -8.03656625     0.61668145    -0.33686450     0.42630839
O      -7.91836610     2.33275482    -3.87757555    -0.05027612     0.64662639    -0.90870900
O      -7.80694782     2.27633733    -8.04395994    -0.70475037     0.92289325     0.41739727
O      -3.90900314     6.33351251    -3.91153133     0.74730897     0.77589614    -0.40922622
O      -3.92171184     6.52040509    -8.00352420    -0.65660899    -1.03232578     1.01808615
O      -7.75665596     6.37240720    -4.08026337    -0.16396881    -0.53209247     1.87059494
O      -7.85131023     6.26679376    -7.91496640     0.22723868    -0.13624337    -0.26260723
O      -3.93486358     4.47272032    -1.93908803     0.08681796    -0.35965387    -1.23629278
O      -3.83637736     4.32228055    -5.94575682     0.11489702     1.03570032    -0.57011189
O      -7.84480477     4.30607508    -9.90855490    -0.00505437     0.23787479    -0.88013145
O      -7.89622997     4.37450048    -5.90878520    -0.19869893    -0.46546403     0.99836420
O      -4.02448150     0.10416379    -9.94956178     0.22715389     0.23287464    -0.04285095
O      -8.03791561     8.64046790    -6.15765998     0.17662389     0.10534385     0.27858471
O     -11.61656528     8.68371175    -5.93929865     0.73170473     0.29077026    -0.50614588
O      -7.70265074     0.03799791   -10.12618747    -1.94339309    -0.16419505     0.42815484
O      -1.87623347     4.09960134    -4.02179862    -1.43359249    -0.33589568    -0.01239770
O      -9.70470155     4.77450586    -4.02074955     0.23413760    -0.32815072     0.16346147
O      -5.82186743     4.52651802    -4.00895076    -0.98335038     0.23183889     0.07359991
O      -5.91279608     4.35419797    -7.84717034     1.07216201     0.60857635    -0.56631427
O      -2.07491050     0.20678037    -3.99794012     0.57354201    -0.52060186     0.05613482
O      -6.10882295     8.52341282    -8.00647604     0.66012099     0.57331553     0.39418444
O      -9.65030939     8.52962911    -4.05581480    -0.34571739     0.16563679     0.15772132
O      -5.83794387     0.69837202    -8.16284189    -0.41834233    -1.68355097     0.61513275
