# total energy = -630.81710665 eV

CRYSTAL
PRIMVEC
        0.00279571     0.02951795    -7.98606283
       -7.83802570     0.01298533    -3.99532603
       -3.92160916     8.71933433     0.00634407
PRIMCOORD
56 1
Li     -3.94576275     2.42979951    -1.93484564     0.27011920    -0.89722324     0.11755798
Li     -3.98733167     1.91667341    -6.06854313     0.46420952     0.37777055     0.06674311
Li     -7.84691499     2.33382105   -10.09958760     0.30644128    -0.12256042     0.72217643
Li     -7.76302246     2.05940968    -5.99613209    -0.14192452     0.44307540     0.24133099
Li     -4.07968734     6.68357219    -2.02797848     0.53094517    -0.03833795     0.60031124
Li     -3.86780442     6.52068589    -5.73539330    -0.00254111    -0.28759950    -0.33236210
Li     -7.90585368     6.56658237   -10.01115861     0.11570583    -0.36376971     0.08951133
Li     -7.87369107     6.52084359    -5.79027979    -0.01053159     0.06950091    -0.61039875
Ti     -1.90629201     2.19821937    -4.20604993    -0.69266399     0.75620378    -0.02956654
Ti     -5.91142531     6.65011000    -7.87098206     0.60359691    -0.31764531    -0.28640454
Ti     -7.92779483     4.39638887    -7.71129059     0.77812704    -0.56511807     0.52211762
Ti     -7.81393386     4.25981212    -3.74290663     0.18792840     0.71007548    -1.00064296
Ti     -3.77104567     4.47512265    -7.69374343    -1.38864739    -0.65315895     1.84818870
Ti     -4.00862555     4.42637653    -3.64909115     0.58177433    -1.45191342    -2.43929863
Ti     -2.20938501     0.05083545    -2.07421923     0.94181274     0.80517918     0.04518300
Ni     -5.78468201     2.45817970    -8.02744046    -1.96636692     1.19022204     0.03351538
Ni     -5.80063699     1.98710345    -4.00322483    -0.40743169     0.85407088    -0.70352811
Ni     -9.76181556     6.72096875    -7.88475364    -0.73672472    -1.08731887     0.80342585
Ni     -9.77958006     6.36072340    -4.04661539    -0.17402789     1.33159300     0.25438992
Ni     -1.89985126     2.06218799    -8.06467440    -0.18803304     0.40626604     1.15371864
Ni     -5.90981225     6.50077903    -4.01064684     0.18787513     0.07038341     0.34980789
Ni     -5.92869657     8.70366624    -6.00605910     0.29197491     0.15909021     0.37514573
Mo     -5.99734059     0.10010314   -10.29558734     0.79595976     0.44704184     0.60840532
Mo     -9.87375852     8.66318884    -6.34559351     1.21649926     0.61015062     0.94275110
O      -1.89569898     1.99419212    -1.89228026    -0.25878622    -0.65703074    -0.55804763
O      -1.90077792     1.77090013    -6.10056761    -0.51276136     1.01004403    -0.44276237
O      -5.92375638     6.87276844    -2.16106700    -0.27786841    -0.50208224     0.83898729
O      -5.84201711     6.89397958    -5.93692821    -0.14045187    -0.65964791    -0.41177132
O      -5.89387463     2.07112704   -10.12126153     0.69339702    -0.89848791    -0.08753960
O      -5.81428115     1.93246158    -5.89958051    -0.39424212    -0.44704110     0.22042786
O      -9.78963468     6.89263364    -9.72900890     0.20340526     1.18512342    -0.73940663
O      -9.86208781     6.75058410    -5.91782645     0.38163734     0.22751240    -1.88458140
O      -3.87405378     2.43807245    -4.13205873    -0.31349826    -0.54300782     0.84139662
O      -3.96341720     2.58048781    -7.94469854     1.28150619    -1.12336770     0.12191998
O      -7.78632670     2.35218170    -3.97328638     0.04907249    -0.51012878    -0.57430066
O      -7.75649100     2.47112746    -8.03146504    -0.19240481    -0.08004281     0.16992021
O      -3.87141085     6.29878332    -3.84572639     0.50463809     1.76331509    -0.33428567
O      -3.99015087     6.38161928    -8.06103352    -0.03102517     0.02241896     0.38555061
O      -7.79686398     6.27618701    -3.99822579    -0.61529343     0.15265020     0.62818773
O      -7.83703683     6.35115471    -7.92978932     0.02940240     0.68417663    -0.18679118
O      -3.97069495     4.20574276    -1.94495357     0.15976357     1.01901256     0.68329072
O      -3.82848626     4.56411505    -5.89402956    -0.22810827     0.07411581    -1.79971593
O      -7.95843389     4.32003124    -9.99130424     0.08497665     0.38058486     0.30524400
O      -7.98521930     4.41470292    -5.94825605     0.23535504     0.00096520    -0.78501357
O      -3.98165925     0.16222656    -9.98044211    -1.33029590    -0.18657422    -0.13974645
O      -7.95787152     8.64878973    -6.00306409    -0.82877277     0.06474746    -0.34300148
O      -7.69277452     0.07422734    -5.81430300     0.56076379    -0.42588264    -1.28675207
O      -7.70455125     0.13193203    -9.98057854    -1.04534226    -0.47101967    -0.34736645
O      -1.97645735     4.05346456    -4.12336262     0.04722031     0.99464786     0.77348096
O      -9.78452609     4.50604084    -4.06665583     0.72373030     0.10445630     0.05842901
O      -5.88954947     4.57098188    -4.05020294    -0.18978166    -0.10349395     0.24501524
O      -5.91510082     4.38495075    -8.04845513     0.12265637     0.87973383     0.53953866
O      -1.83674585     0.36488227    -3.92386929    -0.30698013    -1.80988009    -0.33823494
O      -5.82895546     8.48721410    -8.09427490    -0.43473514    -0.45211904     0.46709120
O      -9.79603589     8.34473601    -4.06758365     0.22043065    -0.42647935     1.04723793
O      -5.91772249     0.65698067    -8.06748224     0.26398696    -1.12933565    -0.11818076
