# total energy = -630.69536327 eV

CRYSTAL
PRIMVEC
        0.00279571     0.02951795    -7.98606283
       -7.83802570     0.01298533    -3.99532603
       -3.92160916     8.71933433     0.00634407
PRIMCOORD
56 1
Li     -3.92893600     2.04939634    -2.07723371     0.06850581     0.49954178     0.86416804
Li     -3.83057281     2.19207439    -5.96638844    -0.54603378     0.08473049    -0.27993981
Li     -7.60599142     2.47369249    -9.91302028    -0.46203265     0.04840545     0.07004052
Li     -7.80255127     2.32927515    -5.92507247    -0.15829486    -0.34951977     0.43233175
Li     -3.82505264     6.55705215    -1.92237095    -0.37131941    -0.16050638    -0.41549480
Li     -3.84298217     6.52191152    -5.97958841    -0.17881695    -0.09901999     0.38547991
Li     -7.76881262     6.42336131   -10.08487128     0.07164596     0.12629922     0.45053251
Li     -8.00696396     6.63848665    -5.83193368     0.67151286    -0.25163457    -0.43030969
Ti     -2.03150616     2.30139232    -4.05756922     0.41388443     0.00894275     1.94634717
Ti     -5.88163927     6.61444757    -7.88148517    -0.32415864     0.70200498    -0.87911871
Ti     -7.80502134     4.34522262    -7.69163449     0.49695266     0.70013012    -0.74923871
Ti     -8.03126038     4.33412900    -3.80639372     0.78695634     1.05758834     0.12304038
Ti     -3.94878070     4.39581206    -7.75282705     0.69307166    -0.65008829    -2.48380964
Ti     -4.17881537     4.40535791    -3.74951187     0.06535343     0.85305323     0.17015179
Ti     -6.05676670     8.68534131    -2.09820838    -0.21891763     1.00119388     0.91152228
Ni     -5.77194547     2.10057202    -7.85364296    -1.17932397     0.37316615    -0.21411317
Ni     -5.89054153     2.28321733    -3.98111125    -0.64552608    -0.48322669    -0.45895292
Ni     -9.69383819     6.36570028    -8.22563805    -0.92567470     0.30353784     1.43277896
Ni     -9.80082433     6.78921124    -4.00594800    -0.07274198    -0.82766813    -0.18482023
Ni     -1.96128919     2.02198878    -7.93005590    -0.02841630     0.19683954    -0.73062572
Ni     -5.95221775     6.73843330    -4.08616027     0.08551489    -0.45219868     1.06114832
Ni     -1.93699145     0.03001700    -5.94131399    -0.21544085    -0.08754392    -0.01907608
Mo     -5.96629667     0.05839502   -10.26169653    -0.33119542     0.47524850     2.29028142
Mo     -5.86152328     0.06918619    -6.33472982    -0.52198560    -0.35810096    -1.25968039
O      -1.98760664     1.91596877    -2.03450984     0.12872130    -0.25131526    -0.12611204
O      -1.88122498     1.87776128    -5.85911327     0.06839366    -0.38247195    -1.02757286
O      -5.83091429     6.86686711    -2.03647411     0.39456078    -1.58793000    -0.12947993
O      -5.98359054     6.93282868    -5.95650129     0.40177188    -0.28839616     0.06028350
O      -5.79944015     1.92286564    -9.70633239    -0.55770487    -0.68987679    -0.58481231
O      -5.80832352     2.04067041    -6.01558581    -0.42597847    -0.46368350     0.32827866
O      -9.76376802     6.88299559   -10.16398672     0.09436431    -1.30031597     0.59507195
O      -9.82794244     6.77946080    -5.83662855     0.31753049     1.03152176    -0.40242276
O      -3.95357780     2.38323023    -3.99433857     0.48783717     0.31514445    -0.24181328
O      -4.02131517     2.44059686    -7.97921110     1.16823465    -1.00624119     0.34938195
O      -7.85239919     2.38686125    -3.98824871     0.86262853    -0.62820929     0.33856463
O      -7.80897290     2.43106693    -7.78376740     0.06818733     0.25834648    -1.38784748
O      -3.86716538     6.31843166    -4.07817610    -0.14036195    -0.71114216     0.28746703
O      -3.92990785     6.37333699    -7.87632869     0.38683443     0.47109795    -0.80799656
O      -7.89990226     6.37711419    -3.96683092     0.20918380    -0.11484424    -0.36387226
O      -7.76489393     6.40862557    -8.02738427    -0.77051922    -0.92528464     0.04080857
O      -3.91391607     4.31414389    -2.01209392     0.11692537     0.43401277    -0.53396686
O      -3.77932801     4.41370449    -6.06051249    -0.13577367    -0.21919154     2.65761807
O      -7.63162623     4.49804846   -10.05372039    -1.15958233    -0.55134441     0.65934282
O      -7.71512916     4.51027305    -5.95663805    -0.33347536    -0.00814798    -0.08540035
O      -7.92105055     8.69088459    -9.98445496     0.37255278     0.51558826    -0.23024528
O      -4.08009786     0.15610543    -6.07149507     1.63919804    -0.58024231     0.46704832
O      -7.64164266     0.04947033    -6.09777710    -0.46488317     0.29872438     0.48595681
O     -11.65683925     8.70512042    -9.93873400     0.33449619     0.29850768    -0.54547233
O      -1.96432059     4.23971748    -4.04933623     0.76210473     0.21070893    -0.09665121
O      -1.96860415     3.87124305    -8.02714641    -1.02345961     0.19899239     0.12105882
O      -6.03873218     4.14556971    -4.03020578     1.77318349     0.00212290    -0.27513460
O      -5.82919774     4.59431946    -8.11599636    -0.76874380     0.86049509     1.04410685
O      -1.91194353     0.09238396    -3.92494832    -0.15413430     1.07870887    -1.33446641
O      -5.78839804     8.59156120    -7.99379467    -0.12895192     0.53034400     0.11587551
O      -5.76374978     0.26317620    -4.00914903    -0.51337356     1.10759905    -1.77117443
O      -9.71288448     8.25980497    -8.12758181    -0.18685770    -0.80766267     0.57795061
