# total energy = -630.72670565 eV

CRYSTAL
PRIMVEC
        0.00279571     0.02951795    -7.98606283
       -7.83802570     0.01298533    -3.99532603
       -3.92160916     8.71933433     0.00634407
PRIMCOORD
56 1
Li     -3.93080282     2.01913076    -1.99075299    -0.22928141     0.85666585     0.21029081
Li     -3.86902427     2.03912339    -5.92635308    -0.24598448     0.30510499    -0.10641161
Li     -8.00111345     2.17964217   -10.10166453     0.33919003     0.02997566     0.70041845
Li     -7.84239688     1.99492071    -5.97918401     0.38485092     0.39423479     0.22733318
Li     -3.84504769     6.39159387    -1.94299021    -0.05978820     0.35880813    -0.15525226
Li     -3.88864496     6.49134439    -5.94161568    -0.25981676     0.08651363     0.39699604
Li     -7.99866806     6.40566964   -10.00998414     0.32178096    -0.11587561     0.36491485
Li     -7.91513770     6.54228447    -5.87419212     1.40650986    -0.26410120     0.00154513
Ti     -1.97199920     2.25962633    -3.99888831    -0.11658408     0.46367513    -0.40407945
Ti     -5.85557292     6.74771911    -7.99227070    -0.73325788    -0.64652970     0.86042706
Ti     -7.80608501     4.32547240    -7.67721527    -0.00079885     0.57396521     1.00121371
Ti     -7.69439562     4.30017159    -3.68777027    -0.76528584     0.62642322     0.06942036
Ti     -3.87038748     4.35832728    -7.59420021     0.26119729    -0.38757165    -0.11150715
Ti     -3.98465174     4.48867093    -3.70841278     0.37906837    -1.08435235    -0.46282230
Ti     -6.11366539     8.63941896    -2.15716671    -0.01159313     1.25284809     0.09828763
Ni     -5.90826720     2.44695952    -8.12575631    -0.26371632    -0.70086802     0.48871578
Ni     -5.89433910     2.17549761    -3.97932702    -0.12826030     0.05668130    -0.31344804
Ni     -9.77069798     6.63640799    -7.92822018    -0.18325164    -0.45666433     1.69374610
Ni     -9.90435928     6.26307660    -4.10747622     1.98397900    -0.09565091     0.04538380
Ni     -1.95536825     2.13844867    -8.11515690    -0.47509948     0.72698941     1.24095662
Ni     -6.00412754     6.65022549    -3.95361045     0.99447796    -0.76680178    -0.78922170
Ni     -5.89858440     8.68674135    -5.93726731    -0.04290534     0.27822042    -0.13741194
Mo     -9.97877256     8.73937633   -10.27852812    -0.07782623     1.05305618    -0.30063984
Mo     -5.73291162     0.06444229    -6.39184177    -1.99341563    -0.51812408     0.83296484
O      -1.93087506     1.89987613    -2.01487647    -0.17802461    -0.54335104    -0.16935312
O      -2.00844801     1.86957475    -5.94690514     0.14111000    -0.68479437    -0.56406572
O      -5.88347968     6.78091944    -2.01372714    -0.08345538    -0.33843199     0.28023381
O      -5.84830276     6.85946166    -5.94582475    -0.53498984    -0.14707408    -0.27109818
O      -6.00992342     2.00428532   -10.07355552     0.60705993    -0.48958585    -0.85724859
O      -5.78926162     1.96444547    -5.87740300     0.07234077    -0.17397555     0.36720093
O      -9.79997675     6.99055156    -9.69998349     0.33948427    -0.44884043    -0.32341566
O      -9.61894562     6.82621131    -5.97067378    -2.07919573    -0.02700903    -1.56430605
O      -3.91058235     2.45937014    -3.95760623    -0.38682736    -0.19939876    -0.01696528
O      -4.03646393     2.49936190    -7.95515271     0.96214641    -0.64208802    -0.30819562
O      -7.92510244     2.35744173    -3.97709704     1.04924140     0.02537497     0.04032468
O      -7.87995728     2.33191120    -8.02768346     0.75567118     0.74542709     0.13264139
O      -3.91802414     6.36475431    -4.03182603     0.96914686     1.23150143     1.25615576
O      -3.93152569     6.29642175    -7.95824268    -0.84820700     0.51640920    -0.19361300
O      -7.95843659     6.34576303    -3.98212290     0.14155627    -1.28745018     0.38653177
O      -7.82974130     6.42756946    -7.91076886     0.18963370    -0.84833038    -0.13973596
O      -3.96428076     4.41002721    -1.95644254     0.57994591     0.34425935    -0.11488594
O      -3.73839127     4.58799620    -5.84973848    -0.29471908    -0.69413228    -0.97574208
O      -7.66796122     4.45230530    -9.87859377    -0.61739061    -0.33203424    -1.53575215
O      -7.88509783     4.19450841    -5.89898764     0.27629878     0.68091768    -1.41870408
O      -3.98648571     0.15101962    -2.15311059    -0.60153777    -0.72720983     0.61187431
O      -3.93591586     0.03549420    -6.08787825     0.58681881    -0.10019744     0.21205380
O      -7.53028626     0.07026368    -6.04461534    -0.10302968    -0.74956146    -0.02973406
O      -3.91474776     8.67719619    -5.99470909     0.26981248     0.41110511    -0.53981596
O      -9.69799020     4.18424998    -8.06230690    -1.04642171    -0.40474398     0.37100686
O      -1.91624131     4.27326364    -7.95680768    -0.54242131     0.95418767    -0.22147800
O      -5.84173103     4.61084265    -4.07875577    -0.79596369     0.09123731     0.09819293
O      -5.88826053     4.38548983    -7.99454203     0.59098886    -0.11224344     0.58730711
O      -2.01948665     0.17055541    -3.99622923     0.32841730    -0.22795699     0.11310059
O      -5.85481716     8.54385584    -8.01009548     0.06709180     0.29181827    -0.60807027
O      -9.75990789     8.24028819    -4.01478149    -0.51558337     0.37144794     0.59501486
O      -5.84307229     0.54455122    -8.13499644     0.17552736     0.62401294    -0.81793775
