# total energy = -630.89709573 eV

CRYSTAL
PRIMVEC
        0.00279571     0.02951795    -7.98606283
       -7.83802570     0.01298533    -3.99532603
       -3.92160916     8.71933433     0.00634407
PRIMCOORD
56 1
Li     -4.01455713     2.41953046    -1.93737902     0.29144656    -0.45071308     0.20776188
Li     -3.92476978     2.43317890    -5.97692295     0.15849057    -0.29980659     0.24684158
Li     -7.70105143     2.39335207    -9.91519406    -0.33488392    -0.03918431     0.02374945
Li     -7.83859255     2.34888169    -5.83301459     0.25374091    -0.02086330    -0.19863651
Li     -3.82817577     6.53189474    -1.94961961     0.41865376    -0.01502518    -0.27776810
Li     -3.90031296     6.17669170    -5.90550005    -0.09420670     1.12620718     0.03768648
Li     -7.91444625     6.35756136    -9.91305718     0.32006894     0.40118885    -0.08781218
Li     -7.68404063     6.34452369    -5.90074862    -0.67748320     0.07383045     0.04584552
Ti     -1.94321866     2.20329792    -3.97664885     0.04236132     0.72655286    -0.60787246
Ti     -5.80862177     6.66082379    -8.15063271     0.09416786    -0.19005573     0.49274528
Ti     -7.84297958     4.42004968    -7.75264222     0.58370940    -0.08053116     0.97697842
Ti     -8.02303231     4.39484413    -3.69307792     1.45451873    -1.36238088    -0.56326427
Ti     -3.83579618     4.35822647    -7.78971192    -0.60474318     0.32343805     0.56367293
Ti     -4.21335252     4.44074587    -3.70410926     2.31973395     0.70204311     0.30146399
Ti     -2.22861269     0.08959446    -2.05677042    -0.71363310     0.07508464     1.39706147
Ni     -5.85199231     2.19019998    -7.96242734     0.51220994    -0.29425459     0.96275413
Ni     -5.89847214     2.34729531    -3.97285081     0.50594167    -2.43170157    -0.54375232
Ni     -9.74973763     6.40158180    -7.99249966    -0.05461013    -1.03914671     0.19024397
Ni     -9.69754712     6.48861463    -4.07249217    -0.04715592     0.75237295     0.29101436
Ni     -1.95698988     2.06849312    -7.91163406     0.61425671    -0.41255034    -0.69692018
Ni     -5.83605766     6.77368486    -4.03316150    -0.06735554    -0.78733262     0.53113625
Ni     -2.11707435     0.02588520    -5.94529537     0.61043683     0.49007302    -0.26667381
Mo    -10.02276452     8.60610585   -10.32076314     0.69970009     0.65805244     0.25997595
Mo     -5.84780944     0.09056117    -6.41494903     0.26949503    -0.23783133    -0.61928065
O      -1.94595292     2.04325424    -2.00205754    -0.24324479    -1.22882698     0.22276419
O      -1.96138028     2.02004583    -5.99201136     0.08168186    -1.44683533     0.86939893
O      -5.81554712     6.73797928    -2.08238097     0.11171486     1.01075954     0.45732544
O      -5.95590785     6.88493330    -5.86105701     0.54137821     0.86977787    -0.15092870
O      -5.86108346     1.72860400    -9.76378616    -0.32684082     0.89674070     0.09836839
O      -5.82764480     1.97663757    -6.03936420    -0.20455465     1.01679870    -0.25411735
O      -9.78694150     6.72261161   -10.24557563     0.21999620    -0.13865413     1.07440350
O      -9.63733006     6.94509378    -5.84374335    -0.70509288    -0.65598033    -0.24525747
O      -3.88487878     2.57423399    -3.97953077     0.02242070    -1.15273013     0.02982363
O      -3.93793339     2.40031196    -7.93900881    -0.98319890     0.23872184    -0.17193171
O      -7.73756843     2.37444418    -3.88370969    -0.77026822     0.25526267    -0.10114517
O      -7.77898548     2.44057016    -7.93836406    -0.27832405     0.06708466    -0.34514507
O      -3.81016160     6.31627731    -3.93615156    -0.69511701    -0.02529788    -0.24519333
O      -3.77992009     6.41371573    -7.98076927    -0.43873688    -0.34041767    -0.42313126
O      -7.76115038     6.22724327    -3.85085024    -0.22070237     1.82585013    -1.26697276
O      -7.83337996     6.37475484    -7.98097230     0.63488869     0.03721007    -0.00739378
O      -3.80991126     4.31983145    -1.93794643    -0.50186122     0.68401060    -0.07782210
O      -3.66055101     4.42620975    -5.95696904    -0.51342362    -0.75008762    -1.10920362
O      -7.72968559     4.48548109    -9.92283924    -0.13028942    -0.98549632     0.70737897
O      -7.66549702     4.38862135    -5.96128994    -0.06377443     0.03278646    -0.30813097
O      -4.01363424     0.05178391    -9.91703191     0.63070168    -0.51819370    -0.78465008
O      -4.01190689     0.16188579    -6.09050744     0.74445267    -0.01403727    -0.03356737
O      -7.63126922     0.17697481    -6.26676281    -0.14450385    -0.68661785     0.80537781
O      -3.88587977     8.62869385    -5.97310106    -0.96074070     0.05986269    -0.28431067
O      -9.69578606     4.36671033    -7.87704537    -0.58917008     0.01774823    -0.27810176
O      -1.90908371     3.88170735    -0.10623534    -1.03718969     0.33793560     0.42448117
O      -5.96510855     4.12162219    -3.90642183    -0.99650897     0.78672314    -0.24079321
O      -5.75092654     4.78607348    -7.87699830     0.00992265    -0.38935198    -0.34333247
O      -2.01055313     0.29215561    -3.86905297     0.05596978     0.34812655    -1.83658999
O      -5.82007500     8.57976969    -8.09025903     0.08108473     0.58136436     0.38837212
O      -5.90384600     0.45521468    -4.03777781     0.07918376    -0.27361691    -0.04155776
O      -9.76986095     8.16989934    -8.20763512     0.13519630     0.86505203     0.72191958
