# total energy = -630.08066996 eV

CRYSTAL
PRIMVEC
        0.00285542     0.02004370    -7.95977623
       -7.82940539     0.00763210    -3.98158109
       -3.91729101     8.74642787     0.01461334
PRIMCOORD
56 1
Li     -3.95203767     2.47746374    -1.86710742     0.33722118    -1.03177128    -0.16296274
Li     -3.83836256     2.26015892    -5.91152310    -1.02846953    -0.24360261    -0.08827239
Li     -7.79115248     2.29115006   -10.15555412    -0.29369285     0.61686828     1.27864528
Li     -7.87361959     2.15815911    -5.92103531     0.21728123     0.02829185     0.11288974
Li     -3.94228804     6.57120659    -2.02784205     0.49727760    -0.02904377     0.30117690
Li     -3.83225770     6.55182392    -6.02554905    -0.09188243    -0.32184507     0.67883166
Li     -7.85817727     6.38299283    -9.85063851    -0.41445322     0.02153201    -0.27136369
Li     -7.67451126     6.83054525    -5.88599417    -0.57963776    -0.15137377     0.15472719
Ti     -1.93245269     2.07670697    -4.10277163     1.85523001     1.73253610     1.31693711
Ti     -5.78301739     6.73794702    -7.94245715     0.48264817     0.77088663     0.87960287
Ti     -7.87544270     4.50778734    -7.66766462     0.46317310    -2.17612773     0.09705793
Ti     -7.80666275     4.50283141    -3.86069027     0.60445201    -0.42332112     2.01677315
Ti     -3.77166275     4.19551359    -7.66218813    -0.58913232     1.24665118     0.69412546
Ti     -4.01625463     4.24623177    -3.64506164    -0.14784887     0.48630879    -3.50938666
Ti     -6.20968444     8.67255169    -2.12319185     0.35353968     1.99916454     0.67549543
Ni     -5.86307664     2.40993452    -8.01587053    -0.70289753    -0.55728120     0.64663087
Ni     -5.93455990     1.95062642    -3.99667503     0.26042514     1.06702094    -0.24325265
Ni     -9.84280405     6.56568176    -7.79638501    -0.13933794    -0.04149341    -1.85928090
Ni     -9.76153594     6.48297624    -4.03867888    -0.01660036    -0.05865947    -0.00745046
Ni     -1.94658084     2.16444732    -7.94745763     0.43379223    -0.40604629    -0.46147669
Ni     -5.80917240     6.61617808    -3.94125900     0.22392203    -0.88361301    -1.13318030
Ni     -1.98219412     0.05162286    -6.03327145     0.00164705    -1.77025060     0.17049825
Mo     -6.04438085     0.16484155   -10.18784172    -0.03400219    -0.19058211     0.19687691
Mo     -9.75088126     8.73852673    -6.33711999    -2.62873957     1.05947630     0.10552221
O      -1.95418460     1.80722572    -1.92553248    -0.21074621     0.10267624    -0.73911172
O      -1.97865878     1.85245705    -6.05595210    -0.18345106     0.61122422     0.59031400
O      -5.77136540     6.84378425    -1.94175642    -0.92398327    -0.92284425     0.15697120
O      -5.81231383     6.88498329    -5.97667590    -0.03231128     0.76130369    -0.31042355
O      -5.85505719     2.16548896   -10.07144710    -0.34255605    -1.37094009    -0.04805085
O      -5.90597391     1.99074469    -5.85580829     0.44751725    -0.94050655    -0.15838823
O      -9.76399525     7.08091772    -9.64419668    -0.40603620    -0.20006914    -0.21003817
O      -9.83512785     6.84095559    -6.00192837     0.89714288    -0.97502154     0.80861820
O      -3.93287175     2.27350800    -3.90255704     0.36641013     0.41521259    -0.41993087
O      -3.93009462     2.27352306    -7.94933357     0.59233005     1.69834423     0.24240033
O      -7.90042266     2.50560800    -3.95356302     0.51154307    -0.87643538    -0.59944031
O      -7.81100247     2.26873328    -7.94982786    -0.87905699     0.99775865    -0.40845034
O      -3.84529120     6.19004671    -4.13563960     0.26664224     0.84946097     1.64317948
O      -3.95227793     6.33947773    -7.91946205     0.56197744    -0.54351906    -0.01938487
O      -7.79476821     6.47077552    -3.99426021    -0.27574816    -0.41134290     0.09015310
O      -7.79503291     6.37911872    -7.88922976    -0.07957096     0.44524611     0.33996097
O      -3.83576850     4.37919996    -1.95264708     0.00298780     0.27217731     1.94341092
O      -3.69166093     4.25982818    -5.89761223    -0.07524283    -0.15021674    -1.29450665
O      -7.95089214     4.45147185    -9.94183936     0.80452996    -0.19678058    -1.11053475
O      -7.90388405     4.20700020    -5.92086739     0.02153186     0.56068672    -0.80108856
O      -4.07432360     0.07655622    -2.11947837     0.65170453    -0.08980230     0.44746080
O      -4.04971980     0.06713813    -6.09498428     1.18382205    -0.51960245     0.70355928
O     -11.55036364     8.71393501    -5.90861737     0.70547102     0.18598684    -0.81670802
O      -7.83516283     0.23899002    -9.96581974     1.14831976    -0.46187933    -0.33296360
O      -1.91367302     4.05997828    -3.95792186    -1.00930443    -1.19202651    -0.04579248
O      -9.68323124     4.53404833    -4.02916384    -2.06981178     0.81213033    -0.34556561
O      -5.85329923     4.61787892    -4.12709216     0.23867241     0.51563891     0.69243751
O      -5.86232180     4.29730547    -7.82015992     0.32373015     0.34165210    -0.54865252
O      -5.85977486     8.70960845    -3.97044174    -0.00614070     0.99199816    -0.41885215
O      -5.78735402     8.67652459    -7.93725533    -0.35957484    -2.01327819    -0.73322594
O      -9.79056047     8.44403128    -3.99697139    -0.24795435    -0.19440433     0.49110505
O      -5.77837817     0.56816393    -8.09101417    -0.66893319     0.12382935    -0.67929651
