# total energy = -630.45133561 eV

CRYSTAL
PRIMVEC
        0.00279571     0.02951795    -7.98606283
       -7.83802570     0.01298533    -3.99532603
       -3.92160916     8.71933433     0.00634407
PRIMCOORD
56 1
Li     -3.83416853     2.54172805    -1.88901823    -0.55045891    -0.43206799    -0.17628850
Li     -3.96573147     2.34651314    -6.05175459     0.47070161     0.30276565     0.21311130
Li     -7.90153101     2.02774311    -9.85921114     0.63741532     0.21965624    -0.38806439
Li     -7.57675477     2.41042833    -5.96566392    -0.96332470    -0.17470412     0.15745993
Li     -3.92357566     6.56810983    -1.89404529     0.15045616     0.05143998    -0.11713634
Li     -3.96470633     6.56311039    -6.02623053     0.23034053     0.00346014     0.35932094
Li     -7.92354614     6.47536472   -10.01896822     0.30477197     0.09981817     0.35324004
Li     -7.93641049     6.31739429    -5.97633689     0.21323530    -0.11614530     0.72465305
Ti     -2.06987293     2.19046093    -4.02509099    -0.20900460     0.79054258    -0.20426717
Ti     -6.00203689     6.72129613    -7.96461269     0.73039933     0.04234902     0.21235448
Ti     -7.74291043     4.26219200    -7.85641324    -0.43537240     0.15966777     1.59665204
Ti     -7.91988320     4.26071519    -3.67593092    -0.16872352     1.30524525    -0.61072394
Ti     -3.99515320     4.44034603    -7.79729753     0.53440746     0.96804240    -0.27720559
Ti     -4.08022899     4.51632471    -3.70307333     0.94353570    -0.00023781    -1.79616511
Ti     -1.78478477     0.16058688    -2.04079626     1.03828866    -1.88594408     0.32080290
Ni     -5.83199049     2.00239092    -7.84209800    -0.14298966     0.54213847    -1.83252245
Ni     -5.89611515     2.34415730    -4.07532788     0.15523365    -0.41448706     0.28500282
Ni     -9.85236005     6.25347381    -8.08354372     0.34296475     1.58537082    -0.32805953
Ni     -9.78920643     6.54709013    -3.95014766    -0.24180214    -0.32045888     0.47878381
Ni     -1.96858705     2.20316210    -7.93718813    -0.73592345     0.56116909    -0.36218345
Ni     -5.92628076     6.70153246    -3.92786732     0.30716117    -0.40954738    -0.79533829
Ni     -1.84872507     0.07624661    -5.95046344    -0.82184238    -1.80192295    -0.74758013
Mo     -5.91724404     0.10868898   -10.35286778    -0.18045626    -1.36008535     0.09346198
Mo     -9.66664696     8.69913319    -6.32044741     0.61731509    -0.97777499    -0.19737301
O      -2.01570003     2.02882120    -2.07951515     0.32641606    -0.25036952     0.66120254
O      -1.95608688     1.85931084    -6.02380648    -0.18189484     1.05006196     0.72352298
O      -5.81382585     6.75471110    -2.02072570    -1.07782084     1.35355333     0.53463985
O      -5.84599577     6.89159154    -5.91881718    -0.46995890     0.86122827    -0.19879768
O      -5.90159688     1.84089086    -9.70962118    -0.26675862     1.38893705     0.03257467
O      -5.76985656     1.90425299    -6.02751213    -0.76002506     0.18457453     0.14404965
O      -9.80746463     6.74067706   -10.09248324    -0.25635865     0.59338668    -0.27167314
O      -9.89023562     6.90097623    -5.73824831     0.88189672    -0.30917592    -0.85016266
O      -3.96143548     2.52356304    -3.96878189     0.37201144    -0.79318629    -0.25174304
O      -4.02792933     2.50985392    -8.01665118     0.63848611    -1.22669258     0.34010014
O      -7.88719699     2.38982448    -3.98147057     0.68573025    -0.36721564    -0.16579156
O      -7.80850357     2.27863307    -7.97362135    -0.51583700     0.57873023     0.33312272
O      -3.93085166     6.38071368    -4.08699954    -0.06971525    -0.42451638     0.54992314
O      -3.95607303     6.51375361    -7.94495046    -0.10207922    -0.79527690    -0.08364155
O      -7.77065652     6.27070261    -3.91359585    -0.86542498    -0.19709889    -0.56349886
O      -7.88238510     6.30719382    -7.88319213    -0.35097804    -0.05690543    -0.86503011
O      -3.72498987     4.42786095    -2.00840999    -0.69092689     0.25136893     1.51905266
O      -4.04863824     4.35953603    -6.08011587     0.62013196     0.02230694     1.22177648
O      -7.71302457     4.35387520    -9.90603721    -0.29100708    -0.04275793    -0.21686662
O      -7.87466982     4.26557030    -6.04947433     0.35408893     0.43612572    -0.87999034
O      -4.20096150     0.05427990   -10.08455073     2.55160670    -0.63443818     0.16779889
O      -7.91382951     8.66192120    -6.05735595    -0.41118303     0.36720734    -0.21543476
O     -11.70207523     8.68452852    -6.11538184    -1.50966776     1.10976918     0.17808271
O      -7.73511601     0.03942193   -10.09272517    -1.40236510    -0.08306663     0.47855832
O      -2.00320682     4.29515644    -4.05849021     0.51313604    -0.30967764    -0.47167518
O      -2.01108559     4.33933862    -7.94024936     1.34701712    -0.36900764     0.13068768
O      -5.84666790     4.25966929    -4.14405095    -2.36544802    -0.79147808     0.70522884
O      -5.88142527     4.69887795    -7.98661257    -0.55554529     0.67840859    -0.45004717
O      -2.17911585     0.25585833    -3.96746282     0.57668771     0.67724994     0.43361689
O      -6.09446056     8.72510320    -7.99891630     0.78292823    -0.72415262    -1.05595011
O      -5.96309622     0.36014534    -4.17416542     0.21160656     0.64871423     0.23922730
O      -9.85261118     8.23384117    -8.10834836     0.16393033    -1.02196531     1.12836683
