# total energy = -630.06094356 eV

CRYSTAL
PRIMVEC
        0.00285542     0.02004370    -7.95977623
       -7.82940539     0.00763210    -3.98158109
       -3.91729101     8.74642787     0.01461334
PRIMCOORD
56 1
Li     -3.96237837     2.28630095    -1.98716181    -0.05738765    -0.18435226     0.25050324
Li     -4.01833986     1.94662982    -5.91234599     0.13369641     0.19555255    -0.14210732
Li     -7.99511007     2.17515998    -9.99778467     0.83370736     0.30587885     0.01117957
Li     -7.84064298     2.33409571    -5.96536782    -0.00576724    -0.33819121     0.25142785
Li     -3.87964994     6.03575629    -1.92749999    -0.19727274     1.25020558     0.22913098
Li     -3.76863730     6.48404698    -5.91671116    -0.14073462    -0.06791705    -0.15589497
Li     -7.84503430     6.54938189    -9.94056158     0.46505832    -0.65352361    -0.03285631
Li     -7.90901911     6.39705293    -5.92221788     0.27069496     0.47748187     0.28121619
Ti     -1.98063264     2.31966517    -3.99092671    -0.28504511    -0.95605223     0.09287778
Ti     -5.71709722     6.63432742    -7.87999827    -1.43121944     0.47881861    -0.71199292
Ti     -7.80861669     4.47477928    -7.73254973    -0.57386417    -0.85885943    -0.32401760
Ti     -7.85135985     4.32436414    -3.87219544    -0.11516790     0.34040582     3.15909672
Ti     -3.94662528     4.22257603    -7.67786232     1.03647051     0.47746953    -0.77429448
Ti     -3.95895747     4.45885023    -3.79668395    -0.82707730    -1.76508406    -0.87640761
Ti     -6.02392823     8.65635477    -2.23969886     0.81559835    -0.76190551     0.77837395
Ni     -5.96692227     2.55644144    -8.01146285     1.25500203    -2.63153468     0.16601005
Ni     -5.88027309     2.42472260    -4.05056900     0.17076037    -1.33055604     1.21110975
Ni     -9.73772430     6.54554738    -7.90279623    -0.13565459    -0.01307541    -0.79055995
Ni     -9.74201025     6.40181436    -4.02434853    -0.06154869    -0.60184098     0.21631805
Ni     -1.98258722     2.19238264    -7.88863823    -0.04843629     0.37360943    -0.54798027
Ni     -5.89488731     6.53403606    -4.07308739     0.48564396    -0.23474796     0.46923045
Ni     -5.82414941     8.73935350    -5.86746559    -0.65256601    -1.85884356    -1.95517733
Mo     -5.89761051     0.02968171   -10.07137255    -0.25149745     0.80631379    -0.43946796
Mo     -9.83106056     8.71457832    -6.26113888    -2.41411257     0.52546275    -1.19069449
O      -1.99006202     1.84417168    -2.02842303     0.23292575     0.02461793     0.00959528
O      -2.10655425     1.74852712    -5.90604847     1.26548475     1.44097612    -0.70085159
O      -5.80950002     6.65870458    -2.05722419    -0.24939886     1.62686846     0.04234108
O      -5.86802924     6.89144906    -5.97896760     0.41330700    -0.47179180     1.44116697
O      -5.92387864     2.06615951    -9.96199562     0.27703107     0.64973573    -0.79615766
O      -5.93622239     2.10461780    -5.85843265     0.33193263    -1.00299028    -1.43918102
O      -9.67068191     6.83457477    -9.88913092    -0.35752103     0.02400113     0.01836386
O      -9.91467249     6.71411289    -6.06785490     0.48395314     0.35086139     1.22485133
O      -3.87046300     2.31130313    -4.02413638    -0.71424586     1.30590608     0.43193661
O      -3.90925632     2.34571598    -7.88539965    -0.23592802     0.07075949    -0.36002377
O      -7.87407526     2.40043620    -4.03205232     0.01187424    -0.22192210     0.40843918
O      -7.82393929     2.43896520    -7.94683300    -1.33963153     0.66975421    -0.30381786
O      -3.77243499     6.28444299    -4.05828127    -0.21612610     1.18428681     0.71697209
O      -3.90025628     6.26721859    -7.92807003     1.16866708     0.20564062    -0.18690190
O      -7.78769994     6.24934472    -3.97189815    -1.22385699     1.62381051    -0.56919574
O      -7.78193092     6.33551265    -7.85771999    -0.54035390     0.82679311    -0.56090035
O      -3.97252271     4.21572834    -2.04438158     0.13283848     0.10217075     0.08415646
O      -3.91275432     4.36092571    -5.97907198     0.15320848    -0.03268065     1.46849384
O      -7.77938310     4.49041167    -9.97967285    -0.18519793    -0.76009951    -1.12552691
O      -7.77070049     4.45048412    -5.94006414    -0.69607639    -0.40613534    -1.15934019
O      -7.89036309     8.71363459    -9.92392304     1.06533580    -0.11196987    -0.16028412
O      -8.13931460     8.53039367    -5.82155806     0.78485033     0.64154662    -0.01762924
O     -11.66825354     8.68786825    -6.07049107     0.26886919     0.19336800     0.29080209
O     -11.54911234     8.60986301    -9.86659931    -1.05429162     0.04850893     0.09303294
O      -2.00277299     4.18205062    -4.09864413     1.01531811     0.46124512     0.30284230
O      -2.00678844     4.28276826    -0.03942317     0.48683376     0.18306251    -0.28983155
O      -5.85668272     4.57577059    -4.20387622    -0.01585127    -1.21389725     0.52023686
O      -5.89163730     4.47764133    -7.93766648     0.19550617    -0.41943361    -0.29335766
O      -1.93015552     0.16236629    -4.07206140    -0.16179880    -0.27606860     1.17251837
O      -5.87469999     8.42363068    -7.87679755     0.27545752     1.37922863    -0.21018011
O      -5.92889699     0.46188531    -3.87630791     0.07698795    -0.38158390    -0.44046087
O      -5.85767872     0.69374510    -8.07795570     0.08798865    -0.73599685     1.27368272
