# total energy = -630.67328840 eV

CRYSTAL
PRIMVEC
        0.00285542     0.02004370    -7.95977623
       -7.82940539     0.00763210    -3.98158109
       -3.91729101     8.74642787     0.01461334
PRIMCOORD
56 1
Li     -3.83038063     2.16123026    -1.94458174    -0.40970063     0.02105355    -0.05289646
Li     -4.02886178     2.37463239    -5.78897788     0.07168489    -0.41036978    -0.82855080
Li     -7.95990973     2.25400103    -9.94613791     0.29050208     0.32526242    -0.34093233
Li     -7.94590265     1.94856805    -5.86135622     0.96429321     0.44377194     0.04374528
Li     -3.87525878     6.50746832    -1.91544429    -0.28825819     0.11866746    -0.09850808
Li     -3.75341967     6.38085407    -5.84480209    -0.30135265    -0.21584594     0.05622231
Li     -7.92694418     6.29731802    -9.85077360     0.24872015     0.22991334    -0.26240753
Li     -7.92523474     6.71403927    -5.77842325     0.64861909     0.07566870    -0.16863584
Ti     -1.93973631     2.20526087    -3.95458757    -0.56071904    -0.38210115    -0.81777100
Ti     -5.83482115     6.67311724    -7.75368860     0.63039511    -0.41775413    -0.36751684
Ti     -7.76534164     4.39478027    -7.69833241    -0.61211343    -0.33255474     0.58435035
Ti     -7.76097361     4.41271067    -3.79408493    -0.44869680    -0.39847613     0.45988291
Ti     -3.72549307     4.28307114    -7.69601919     0.38153203     0.83749380     0.72680011
Ti     -3.92757891     4.35454953    -3.69940393    -0.26675542     0.13039050    -1.58028412
Ti     -6.17868550     8.65729631    -2.04415213     2.27740605    -0.67509522    -2.11056876
Ni     -5.92258889     2.42723963    -8.13049552     0.29033268    -1.30523048     0.71386288
Ni     -5.95266456     2.12011469    -3.93920450     0.22691200     0.13002563    -1.32680815
Ni     -9.62321049     6.55079926    -7.81185920    -2.64467727     0.11084908    -0.64590363
Ni     -9.80065604     6.62113903    -4.05233038     0.27265575    -0.18139241     0.61157373
Ni     -1.92803299     2.01727636    -7.94988251     0.07781648     0.31526295     0.40306736
Ni     -5.78051803     6.54630257    -3.86650266    -0.52511357     0.25132806    -1.30106706
Ni     -5.99634208     8.68469519    -5.97058991     0.65497362     1.91939767     0.49755717
Mo     -6.03711187     0.09148221   -10.23894803    -0.78783946    -0.37064819    -0.59312711
Mo     -5.92232894     0.05178758    -6.41962222    -1.18224630     1.25997474     0.79724962
O      -1.90089141     1.89869343    -2.00232192    -1.07029786    -0.22519150     0.19600026
O      -1.99059585     1.81766558    -6.00424980    -0.54579623    -0.37110711    -0.49181973
O      -5.88632018     6.68657568    -2.03295884    -0.08589647     0.65384110     0.48032724
O      -5.79671957     6.88364959    -5.82694848    -0.72325958    -0.65308320    -0.37071612
O      -5.86851236     2.00656961   -10.09651542     0.15336956     0.50139321     0.72634736
O      -6.01019174     1.92620660    -5.79671471     0.77883164    -0.30396995    -0.58508412
O      -9.79535601     7.04782560    -9.69821341     0.68304978    -0.43986555     0.33918245
O      -9.78820649     6.93008984    -5.97074312     0.16283956    -1.12525760    -0.09177401
O      -3.98459117     2.31045098    -3.95817948     0.46809887     1.19755705     0.79777084
O      -3.91312266     2.44413464    -8.04870584     0.28863589    -0.32504726     0.46172829
O      -7.80756029     2.41184301    -3.97132509    -0.83939711    -0.17171927     0.29446393
O      -7.88541811     2.44315339    -7.99205382     0.62122530    -0.40940677    -0.10501809
O      -3.79910467     6.29281533    -3.98180784     0.52738646     0.55172296     0.60759769
O      -3.98424413     6.35440374    -7.78113680     0.61026271    -0.36009896    -0.70506330
O      -7.78288922     6.37191984    -3.94727040    -0.16105118     0.37645688     0.12650556
O      -7.77906774     6.46643987    -7.85643421     0.39016756    -1.45350117     0.24951700
O      -3.74961330     4.53938733    -1.99322221     0.02187475    -0.52470564     1.27445703
O      -3.59724978     4.33550428    -5.90289225    -1.17017691    -0.03506421    -1.43598674
O      -7.79835379     4.32787779    -9.96250602     0.04597910     0.06430292     0.01931884
O      -7.89175675     4.19067177    -5.95310985    -0.03372310     0.66745013    -0.93201311
O      -3.97412624     0.07383187    -9.85726159    -2.05350658     0.33993338    -0.05708764
O      -4.11552695     0.08132558    -6.16316387     0.29093850    -0.42882065    -0.07571370
O     -11.69815459     8.74650512    -6.03173053     1.34623540    -0.42359906    -0.46726826
O      -7.80666710     0.13395188   -10.22406762     0.08168258    -0.22119685     0.62086301
O      -1.94646965     4.16911330    -4.17200333     0.44772140    -0.87750753     1.39736134
O      -9.69466736     4.76564024    -3.98997552    -0.44838401     0.13405176    -0.31201717
O      -5.84707464     4.65427237    -4.10116169     0.53375607    -0.31743646     0.39954863
O      -5.78972983     4.22787497    -7.92572884    -0.42823202     1.65778043     0.08576276
O      -2.17958489     0.13878151    -4.03166829     0.79807711     0.44511518     0.82239742
O      -5.79345509     8.40454199    -8.15643079    -0.09058970     1.04672083     1.76818974
O      -9.76200518     8.52012114    -4.06631454     0.31697357    -0.39160733     0.32645259
O      -6.00190875     0.56189672    -8.18994933     0.00017704     0.55512562     0.30139781
