# total energy = -630.43678284 eV

CRYSTAL
PRIMVEC
        0.00279571     0.02951795    -7.98606283
       -7.83802570     0.01298533    -3.99532603
       -3.92160916     8.71933433     0.00634407
PRIMCOORD
56 1
Li     -3.87129057     2.13359804    -1.85453715    -0.22665042     0.11871866    -0.17679346
Li     -4.01805114     2.15599285    -5.86155021     0.22209818     0.47361502    -0.60204634
Li     -7.88016964     2.19314071   -10.13689239    -0.38191177    -0.14668295     0.97776310
Li     -7.86036607     2.36358746    -5.97061195    -0.03212468    -0.20683342     0.44013311
Li     -3.89508032     6.38512109    -1.90990021    -0.22154608     0.12323775     0.05875138
Li     -3.81108478     6.52223449    -5.77285466    -0.23758785     0.00524655    -0.62129062
Li     -7.84762933     6.63588657    -9.87579066     0.05934852    -0.32557746    -0.57650557
Li     -8.17900389     6.39450093    -5.97075881     2.05928696    -0.85762364     0.64259338
Ti     -2.04153220     2.21211138    -4.03367809     0.19143051    -0.01159706    -0.32994682
Ti     -5.92966464     6.76446881    -7.72518279     0.92156163    -0.07145103    -0.80159296
Ti     -7.88829453     4.30432090    -7.74070996    -0.12165402     0.62551000     0.16367648
Ti     -7.93826146     4.36699479    -3.68281492    -0.16878336     0.48552187    -2.07202965
Ti     -3.94847882     4.35790259    -7.68093897     0.82412771     0.50786546    -1.30123848
Ti     -4.00040705     4.38559662    -3.60552545    -1.15337224    -0.88406093    -1.86303730
Ti     -5.57445498     8.63720585    -2.16125681    -0.24482333     0.38444796     0.84478243
Ni     -5.90369251     2.41399532    -8.03794254     0.30048673    -0.92838767    -0.51193772
Ni     -6.05171264     2.12966149    -4.03296874     0.72557820     0.74104760    -0.72290054
Ni     -9.80655203     6.56000224    -7.92614051     0.39540058    -0.05135310    -0.45557562
Ni     -9.84028696     6.57437333    -4.03180055     0.13552797    -0.28647790     0.44055845
Ni     -1.98104856     2.02392369    -8.02570824    -0.03176869     0.15183724     1.13998594
Ni     -5.85575410     6.45314979    -4.02524636    -0.59803604     0.01815000    -0.07705334
Ni     -1.90267893     0.02394818    -5.85774808     0.04768143     0.54205140    -1.21337393
Mo     -5.92047069     0.10298642   -10.31978762    -0.76486225     0.21213320     1.19721387
Mo     -9.59818702     8.68829398    -6.43228459    -2.65031910     1.11596733     0.44559848
O      -1.94059013     1.93615663    -1.87551664    -0.15240015    -0.80299813    -1.47746190
O      -1.98286432     1.95843531    -6.10272243    -0.16702426    -1.17449422     1.18098379
O      -5.81331381     6.72987885    -2.21962294    -0.47063956     0.30313091     1.13550860
O      -5.88451711     6.87895858    -5.86941887     0.21267767    -0.22070987     0.16514879
O      -6.02125848     2.03529598   -10.13532795     0.54285171     0.46678043     0.52477791
O      -5.95497325     1.98217732    -6.03845049     0.54602368    -0.94649021     0.94566821
O      -9.79739737     6.95478797    -9.85190241     0.14773190    -0.57015298     0.79646103
O      -9.84282372     6.82549690    -6.05011430    -0.61118462     0.26987250     0.06310352
O      -3.91208148     2.36162353    -3.96288140    -0.82753306    -0.22966198    -0.28952488
O      -3.89172449     2.44426798    -7.88287869    -0.46163007    -0.17470117    -0.17511692
O      -7.95109862     2.41756150    -3.96041558     0.11556376    -0.12683118    -0.71444860
O      -7.89198539     2.42737463    -8.05517358     0.16134740    -0.21192137     0.31364103
O      -3.82537967     6.28076286    -3.93276792    -0.54544234     0.39104985     0.53654917
O      -4.04522582     6.43047160    -8.01449707    -0.18731038    -0.68034324     0.49615095
O      -7.85626909     6.32648980    -4.02963223     0.14368046     0.52387729     0.27168800
O      -7.78020029     6.24428957    -7.94215573    -0.94558073     1.53641371    -0.07607613
O      -3.76325041     4.17196896    -1.92379223    -0.58430664     0.71509907     1.00195737
O      -3.90154493     4.52853957    -5.97406908    -0.18089573    -0.30734258     1.04270408
O      -8.03815494     4.48918759    -9.97122048     0.06344884    -0.03871817     2.09224001
O      -7.91082117     4.47829503    -5.97042063    -0.12568456    -0.73583982    -1.06359085
O      -4.15369667     0.16216730    -2.27555115     1.31032184    -0.31778633     1.01700118
O      -7.88937828     8.73919256    -6.09834521     0.63160918    -0.17397892     0.31715947
O      -7.71880385     0.07163662    -5.90760521     1.03072790    -0.49211153    -0.88774470
O      -7.81638266     0.06752637   -10.01473352     0.03428565    -0.05450094    -0.32289664
O      -2.09136943     4.13783225    -3.99801930     1.47946328    -0.31807699    -0.09789717
O      -9.84687155     4.75150831    -4.07555114    -0.42574079    -0.28584141     0.32787593
O      -5.96469089     4.31275079    -3.97434550     0.63124856    -0.02228026     0.16656154
O      -5.95877999     4.27989411    -8.06691231     0.83316193     0.25121290     0.31308185
O      -1.76573683     0.23393872    -3.96896842    -0.53999739     0.84548245    -0.08227526
O      -6.00828870     8.49830843    -8.13352089    -0.07185868    -0.09230554    -0.38883788
O      -9.84526378     8.52232558    -4.06455758    -0.29523830    -0.25839754    -2.74141093
O      -5.81854363     0.50853574    -8.16253736    -0.27693298     0.76566199     0.64587064
