# total energy = -630.99135792 eV

CRYSTAL
PRIMVEC
        0.00285542     0.02004370    -7.95977623
       -7.82940539     0.00763210    -3.98158109
       -3.91729101     8.74642787     0.01461334
PRIMCOORD
56 1
Li     -3.91781482     2.05352648    -1.89362639    -0.09593910     0.29877258    -0.09360682
Li     -3.90172865     2.04125064    -6.02862975    -0.43480506     0.57795609     0.33008671
Li     -7.69783541     2.20790685    -9.94376445    -0.67024965    -0.02338122     0.07653839
Li     -7.75433142     2.09890538    -5.86905455    -0.51037673     0.39550641    -0.17435473
Li     -3.87519033     6.45387528    -1.92076832    -0.00397863     0.03741139     0.25744888
Li     -3.82819954     6.58877800    -5.73852705    -0.35144988    -0.40073546    -0.14849781
Li     -7.89207476     6.56096176   -10.06347858     0.23954358    -0.00336164     1.12915795
Li     -7.86515861     6.37422182    -5.89327959     0.20254205     0.03806970     0.30473390
Ti     -1.96874321     2.26058778    -4.04678430    -0.63389373     0.17767490    -0.23696139
Ti     -5.77625623     6.91520346    -7.82863434    -0.14640591    -0.61283711    -0.32050900
Ti     -7.85766637     4.43152179    -7.71358145     0.08307851    -0.07255163     0.14613498
Ti     -7.87280165     4.31129823    -3.67457059     0.26060554    -0.09642858    -1.22678859
Ti     -3.86022777     4.40355871    -7.73085031     0.18022467     0.18270362     1.53707088
Ti     -4.07264010     4.30834642    -3.57296003    -0.00832179    -0.32433173    -2.60414921
Ti     -1.96865005     0.01893805    -2.23139727    -0.45413648    -0.66962639     0.20600945
Ni     -5.85211112     2.43870158    -7.91157570    -0.62001498    -0.54534174    -0.78067188
Ni     -5.92890401     2.08399485    -4.07311283     0.60393227     0.91334124     0.74156385
Ni     -9.75905270     6.59914816    -7.86366608    -0.55864103    -0.44757378     0.19569920
Ni     -9.71281448     6.49263180    -3.93436818    -1.10499913     0.58018771    -0.71571697
Ni     -2.04647614     2.01326606    -7.90352985     1.05955475     0.64450075    -0.73229594
Ni     -5.89952524     6.53565885    -3.93333964     0.34469877    -0.14130132     0.22921696
Ni     -5.91599590     8.74145906    -5.98509459     0.80302884     1.04234185     0.78500624
Mo     -5.87287532     0.07033175   -10.24738791    -1.55577679     0.55985615    -0.26808731
Mo     -9.76965111     8.69146928    -6.40578282     0.87049423    -0.44105568    -0.85557832
O      -2.02939441     1.91256820    -1.98423079     0.70334155    -0.39025594     0.31679544
O      -1.97047822     1.89177206    -6.04948821    -0.04955254    -0.67970737     0.34323866
O      -5.86221216     6.79190933    -2.00049533    -0.02413087     0.45702178     0.38327488
O      -5.79889371     6.85823731    -5.81392114    -0.64441084     0.48781720    -1.33640654
O      -5.82454438     2.05023435   -10.07908397    -0.36664360    -0.80691775    -0.56575068
O      -5.87536842     1.93145533    -5.93704375    -0.06100109     0.04862632     0.24193325
O      -9.81233677     7.00897969    -9.61411983     0.56276793     0.11895839    -1.08099881
O      -9.78372265     6.74298458    -6.08121900     0.73623096     0.82791369     1.33720760
O      -3.93734059     2.28871716    -3.96255654    -0.22764062     0.57253823    -0.25314411
O      -3.93992684     2.47692055    -7.95535679     0.32043761    -0.19427578     0.32659256
O      -7.86981686     2.37376609    -3.97922728    -0.11433124    -0.34511628     0.04739043
O      -7.87589871     2.43970089    -7.84333092     0.38928003    -0.05369562    -0.75686251
O      -3.82210922     6.24981511    -3.77885297    -0.54772622     0.31705293    -0.85671415
O      -3.86706168     6.44965800    -7.90906934    -1.16324717    -0.09388488    -0.08324565
O      -7.86009394     6.32974176    -3.92898979     1.07127375    -0.22885589    -0.23712281
O      -7.79810287     6.41272883    -7.93678964     0.26996416     0.11341430     0.24213758
O      -3.81502252     4.29172269    -1.88368968    -0.32798747     0.38543943     1.19699413
O      -4.02866099     4.48229956    -5.97738793     0.40458817    -0.03441024    -0.64918639
O      -8.11794693     4.33429751    -9.91664049     0.79735018     0.10239876     1.34243909
O      -7.93691393     4.41542703    -5.95619324    -0.27137979     0.13759176    -0.40316285
O      -3.96258438     0.04615750    -2.26214720    -0.34768321    -0.32000713     0.74581585
O      -4.07092917     0.15908616    -6.07144822     0.69504158    -1.34180780    -0.01444177
O     -11.54149809     8.75341185    -6.10206505    -1.55745043     0.03222305    -0.00257826
O      -7.77707339     0.11503161   -10.07031369     1.28748964    -0.14006984     0.04779454
O      -2.12434015     4.09205156    -4.04251453     0.90585871     0.35534462     0.24532071
O      -9.73456116     4.64669380    -3.92130106    -1.63782515     0.03928085    -0.46318319
O      -5.93874483     4.22692888    -4.04455436     0.19019548     0.21738189     0.66413713
O      -5.98823836     4.32893639    -7.99319731     1.28556699     0.03241284    -0.03103424
O      -1.93799090     0.21111387    -4.02410125     0.27972996     0.00687089    -0.33440148
O      -5.82648286     8.70938360    -8.08221333    -0.20537885    -0.98035304    -0.04314518
O      -9.84580930     8.38550498    -4.08470274     0.33721723     0.28754687     0.38350247
O      -5.78685917     0.60453032    -8.19675244    -0.18073482    -0.18704981     1.35951114
