# total energy = -631.14997002 eV

CRYSTAL
PRIMVEC
        0.00279571     0.02951795    -7.98606283
       -7.83802570     0.01298533    -3.99532603
       -3.92160916     8.71933433     0.00634407
PRIMCOORD
56 1
Li     -3.93964552     1.98678650    -1.98047120    -0.14548985     0.37870971     0.44721802
Li     -4.02080725     2.08752942    -6.03150597     0.58519370    -0.06559684     0.16380316
Li     -7.77860303     2.19768069    -9.96812235    -0.58903417     0.26415004     0.00896280
Li     -7.76443822     2.59146967    -6.09125182    -0.18948938    -1.29768359     1.01444535
Li     -3.86855029     6.33855148    -1.98362585    -0.01834183     0.18192135     0.16607609
Li     -3.91622787     6.46072914    -5.72042249    -0.16247128     0.02033141    -0.70859668
Li     -7.89306776     6.22867835    -9.81366913    -0.17152749     0.60900833    -0.71636500
Li     -7.74408793     6.58468810    -5.87438868    -0.41309856    -0.12938923    -0.29887869
Ti     -2.05979080     2.23133192    -3.89814559     0.25613890     0.41375900    -1.65551568
Ti     -5.81493429     6.67960507    -8.01284625     0.76329858     0.67335183     1.12181047
Ti     -7.77273588     4.34798684    -7.79309962     0.10935927     0.26128445     0.32801790
Ti     -7.67961645     4.31125233    -3.80256592    -0.77338176     0.65611726     0.91735952
Ti     -3.73285345     4.36684285    -7.66241396    -0.36420697     0.07799256     0.67835314
Ti     -3.98834934     4.44884668    -3.78859718     0.29469350    -0.39198573    -0.57821103
Ti     -6.00176939     8.65424186    -2.04707598    -1.45154829    -0.75589383     0.14463180
Ni     -5.84908308     2.45533758    -8.08577927     0.08004285    -0.13891044     0.01424792
Ni     -5.89721176     2.24269752    -4.04948354    -0.24170685    -0.74769160     0.73011538
Ni     -9.78078176     6.52317335    -7.86848325     0.30870518     0.25572297     0.79000114
Ni     -9.77083705     6.44535041    -4.06076483    -0.54631316     0.21791120    -0.21226188
Ni     -1.92168381     2.15562852    -7.96817795     0.10529186    -0.49980686     0.42103157
Ni     -6.07458025     6.69292235    -3.99203298     1.58397715     0.19333772     0.25526472
Ni     -5.93438303     8.69550848    -5.92577803     0.32729810    -1.33849471    -0.81460519
Mo     -9.96799667     8.73155037   -10.26588604     0.13094269    -0.75217625     0.55097374
Mo     -5.95692002     0.06531301    -6.40743737     1.53863103    -0.53002366     0.03313360
O      -1.86471598     1.86821902    -1.96694897    -0.40955650     0.37794663    -0.37693420
O      -1.90873127     1.81041764    -5.96512578    -0.60136417     0.01606632    -0.16475154
O      -5.86128980     6.67254844    -1.93978543    -0.40075169     0.60462513    -0.36747980
O      -5.83377962     6.70802331    -5.94897230    -0.61383166     1.89786632    -0.34624225
O      -5.86544052     1.94226024   -10.18345106    -0.11538048     0.22103064     0.23732872
O      -5.92893844     1.96385844    -5.84154809     0.18210639    -0.43213647    -0.72763251
O      -9.83304190     6.95164221    -9.65682700     0.18113113     0.03432694    -0.36287389
O      -9.64916979     6.87864620    -6.00948838    -0.93321175    -0.92294719    -0.48639914
O      -3.98721725     2.32279108    -3.97308103     0.58865042     0.25172371    -0.18460959
O      -3.79112488     2.46567139    -7.96606110    -0.56814299    -0.06019749    -0.13180826
O      -7.87628824     2.38556706    -4.03064550     0.84656250     0.59008234     0.18017300
O      -7.85897063     2.43486669    -8.00842796     0.30928114    -0.38985363     0.18883661
O      -3.79582467     6.35029611    -3.90773015     0.41421604     0.44355162     0.59661133
O      -3.87304753     6.32408553    -7.97149609    -0.91106687    -0.25005955    -0.18452621
O      -7.96490199     6.40222159    -3.92641632     0.76163694    -0.98273474    -0.01474656
O      -7.82498088     6.24595613    -7.93864242     0.39157089     1.18870090    -0.18378501
O      -3.98881712     4.30044952    -2.06190313     0.24910925    -0.01653792     1.04637387
O      -3.86931258     4.44607259    -5.88804138    -0.07957961    -0.44018173    -1.05301670
O      -7.75123806     4.35276723    -9.97087007    -0.21144999    -0.23946449    -1.02094070
O      -7.90034252     4.37308569    -6.01352634    -0.18132882     0.36806012     0.12203387
O      -7.91198332     8.68636092    -9.93493106     0.53417933     0.61683831    -0.18500192
O      -7.95988151     8.66816212    -6.19828056     0.23139159     0.68037033     0.40914764
O     -11.61295845     8.58198788    -6.09614098    -0.23103637     0.16593620    -0.20751657
O      -3.92890337     8.69895657    -6.00403742     0.73470742     0.33647003    -0.13458780
O      -1.98728772     4.11058145    -4.13444497     0.04030593    -0.77402137     0.72586014
O      -9.73105238     4.61369486    -4.00724408     0.32050818    -0.44804955    -0.10354657
O      -5.86945179     4.83652821    -4.05370973    -0.89238328    -0.26252008    -0.18359617
O      -5.82520350     4.31917457    -7.86398612     0.18347056     0.33683385    -0.59633910
O      -2.02582128     0.06433451    -3.92277753    -0.02555555    -0.06410527    -0.38754774
O      -5.63391738     8.55056372    -8.13309061    -0.67902843    -1.12766168     0.89770011
O      -9.87555084     8.32080855    -4.03036908     0.22688969     0.61233547    -0.02395048
O      -5.91229519     0.63328584    -8.15923202    -0.08291853    -0.10250412     0.20788504
