# total energy = -630.72765877 eV

CRYSTAL
PRIMVEC
        0.00279571     0.02951795    -7.98606283
       -7.83802570     0.01298533    -3.99532603
       -3.92160916     8.71933433     0.00634407
PRIMCOORD
56 1
Li     -3.88189418     1.93355439    -1.91674414    -0.35169178     0.40027754     0.11723807
Li     -3.99794713     2.25705960    -6.05684982     0.15667748    -0.12686217     0.52643273
Li     -7.80633198     2.11233077    -9.92387987     0.08279666     0.06230386    -0.18350601
Li     -7.85333904     2.28303607    -6.05089234    -0.14811397    -0.12281111     1.10737078
Li     -3.83734742     6.38771499    -2.01753784    -0.29452425     0.04356041     0.32340941
Li     -3.87367072     6.27459425    -5.86692750    -0.28794487     0.65055493    -0.43461795
Li     -7.85886469     6.35446671   -10.03135274    -0.04581968     0.71857783     0.33204029
Li     -7.97498700     6.56367504    -5.80991816     0.21248130    -0.03282239    -0.61313498
Ti     -2.01841865     2.38923765    -3.97116289     0.83579576     1.23706111    -1.19311307
Ti     -5.98323806     6.68977928    -7.93987616     2.23504331     1.06311794     0.34397051
Ti     -7.70524044     4.38980585    -7.66704659    -0.01974765    -0.53245900    -0.55565056
Ti     -7.92295386     4.42072701    -3.73346061    -0.41985880    -1.06772237     0.88550241
Ti     -3.86735330     4.27138894    -7.72883027    -0.60520177     1.65135657    -0.87150216
Ti     -4.20243294     4.38225564    -3.69316773     2.40096279     1.50374086     1.21910643
Ti     -1.80194741     0.03370500    -2.29930471     0.30704271    -0.57273632     1.93508417
Ni     -5.86925158     2.04189681    -8.01940946    -0.98965921     0.16112938     0.48110675
Ni     -5.92143151     2.31345942    -3.95644624    -0.69269756     0.87353388    -0.39781521
Ni     -9.70327282     6.31340728    -8.10511081    -1.60948421    -0.59352855     0.43789864
Ni     -9.87914505     6.64481044    -4.03178398    -0.00046807     0.32876575     0.58114428
Ni     -1.99506439     2.15533289    -7.93484257     0.35932075    -0.71129341    -0.01399967
Ni     -5.97929436     6.62742130    -3.98217704     1.12902269     0.17087398    -0.48143979
Ni     -1.90856889     0.07862721    -6.02442090     0.59475906    -0.66622363     0.90344504
Mo     -9.74893686     8.67985789   -10.29238726    -1.74241702    -1.74392392    -0.11879605
Mo     -5.85942010     0.10678195    -6.31394876     0.24574936    -1.96248765    -1.53587041
O      -1.97713888     1.95895950    -2.00486713    -0.28472199    -0.31024410    -0.92673061
O      -1.89751642     1.86777946    -5.95073360    -0.68785819     0.97462869     0.50542678
O      -5.90308088     6.88083320    -2.00451115     0.05538671    -0.25942416    -0.00874770
O      -5.79854557     6.94113191    -5.96773974    -0.88240363    -0.27552804    -0.07499200
O      -5.83823411     1.89152816    -9.90113157     0.14943709     0.76142549     0.48908816
O      -5.98355786     1.98034016    -6.08067681     0.67522589     1.01960116     0.04241937
O      -9.86041793     6.68557132   -10.16886542     0.82850351     0.58423008     0.38432417
O      -9.88813075     6.85726351    -5.86640883     0.60061720     0.70336865     0.36225645
O      -3.87679868     2.50386761    -3.96757243    -0.74842575    -1.48059457    -0.18915650
O      -4.08514204     2.35856470    -8.01199322     1.12978121     0.25681194     0.47475811
O      -7.92774827     2.43370871    -3.97754943     0.91843186    -0.13591343     0.20621042
O      -7.80449450     2.37611427    -7.94691935    -0.56287750     1.05427572    -0.25204406
O      -3.80645313     6.24556295    -4.01320647    -0.92428859     0.16026332     0.50995155
O      -3.91759550     6.47105553    -7.96306566    -0.17379136    -1.07130842    -0.00819371
O      -7.82186844     6.36864365    -3.99519103    -0.87677729     0.01026997     0.20596585
O      -7.84376553     6.34392032    -7.94952793    -0.24042441    -0.11160820     0.15735010
O      -3.81805567     4.43858213    -1.93216748    -0.60993253    -0.19773782    -0.69107444
O      -3.99860437     4.39373670    -5.95684071    -0.07702115    -0.71240415    -0.80035714
O      -7.85071282     4.50325100    -9.93607603    -0.25428992    -0.38609268    -0.38930069
O      -7.91334992     4.41545685    -5.90180948     0.15420997     0.10813319    -1.35421314
O      -7.92877738     8.66277116    -9.98262992     0.20995630     0.40169682    -0.27193086
O      -4.10725944     0.12943213    -6.17436408     0.50049209     0.15349920     1.22210184
O      -7.79435154     0.13817736    -6.01613392    -0.34523354    -0.26094051    -0.39100869
O     -11.55085871     8.75368262    -9.84855567     0.71257336     0.04501684    -0.57091744
O      -2.05747580     4.38057154    -4.11123281     1.71716367    -1.71315731     0.49240565
O      -1.98240185     4.02706335    -7.91765004    -0.50534881     0.11329462    -0.13370438
O      -5.99454814     4.21921884    -3.93759800    -0.78309932    -0.44914744    -0.32430071
O      -5.88523941     4.75525323    -8.09563602     0.09193475    -0.27317608     0.79945643
O      -1.94174392     0.13545337    -4.06145309    -0.33465448     1.27860529    -1.31490090
O      -5.96776931     8.73492956    -7.84310996     0.26534235    -0.16426707    -0.80220393
O      -5.87870055     0.50799381    -4.06204136    -0.00382758    -0.86016425    -0.48666324
O      -9.65381648     8.10517309    -8.04590973    -0.96463559     1.02469044     0.34160575
