# total energy = -630.62380891 eV

CRYSTAL
PRIMVEC
        0.00279571     0.02951795    -7.98606283
       -7.83802570     0.01298533    -3.99532603
       -3.92160916     8.71933433     0.00634407
PRIMCOORD
56 1
Li     -3.91932285     2.00393750    -2.01494384    -0.50422566     0.37984927     0.36400611
Li     -4.00831354     2.16363865    -5.99011742     0.03525376     0.38316566    -0.10062534
Li     -7.82445761     2.24559195    -9.87643913     0.15234745    -0.17689189     0.01807629
Li     -7.97575732     2.51825090    -5.72829850     0.39646319    -0.04181283    -1.33748042
Li     -3.89238853     6.59749518    -1.91150516     0.22199981     0.09925158    -0.33557338
Li     -3.81948455     6.24466131    -5.93013009    -0.17548421     0.23331008     0.34670756
Li     -7.84543859     6.60812760    -9.93179132     0.67061562    -0.02882169     0.12636134
Li     -7.87741534     6.60061134    -5.83398243     0.55159473    -0.38830588    -0.16602573
Ti     -1.99813487     2.51831646    -4.09293622     0.55288482    -1.11444476     0.20499595
Ti     -5.73996896     6.86223912    -7.84979297    -0.94199311    -0.58117025    -0.55438271
Ti     -7.63128056     4.50312201    -7.71032297    -0.70055534    -0.94555042     0.38612868
Ti     -7.90572282     4.32375735    -3.55876516    -0.03122510     1.53094859    -0.75147493
Ti     -4.00050320     4.34281699    -7.80686860     1.10456639    -1.01548744     1.23296919
Ti     -4.23716300     4.45429397    -3.62393531     0.95682612    -1.18486327    -0.85040309
Ti     -2.00740045     0.12344799    -2.20894028     0.84103985    -0.21696799    -1.71094932
Ni     -5.94524104     2.10523421    -7.95843622     0.05512740    -0.25529964     0.83040602
Ni     -5.99898773     2.21574370    -3.94762547     0.61893398    -0.43212005    -0.69935843
Ni     -9.80541536     6.38563994    -8.02156291     0.30837038    -0.15591757    -0.04499258
Ni     -9.78913254     6.51728252    -4.11367476     0.44690909    -0.10597560     0.87843241
Ni     -1.99011107     2.15293430    -7.95204646    -0.30260383     0.81855336    -0.35313705
Ni     -5.91132767     6.66256368    -3.95950984    -0.08898483     0.47199829     0.20124946
Ni     -1.95867889     0.09983977    -6.06693527     0.23247988    -0.42679458     2.46349168
Mo     -9.84363142     8.54790237   -10.29816236    -1.62950152     1.10559956    -1.59012188
Mo     -5.80235903     0.05071460    -6.40797795    -2.03817207    -0.20285874    -0.35526748
O      -1.99851145     2.05146580    -1.95417763     0.04925322    -0.43991327    -0.23727798
O      -1.91350079     1.90235711    -6.07766342    -0.24727868     0.71701316     0.57631685
O      -5.82676860     6.93150932    -1.97564658    -0.29996999    -0.83265682     0.17651819
O      -5.91046270     6.96247429    -5.84484029     0.07229457    -0.34413141    -1.28989682
O      -5.97486989     1.76165953    -9.80325726     0.84059748    -0.03849315    -0.36741160
O      -6.03598631     1.88940031    -6.05791761     0.79078038     0.87692373     0.08707906
O      -9.73052067     6.64730423   -10.12503492    -0.21271083     0.10858409     0.09399852
O      -9.70380276     6.74718110    -6.00791080    -0.67761806     0.53668357     0.58644776
O      -3.96898582     2.53021193    -4.11289375     0.90793405    -0.64459532     1.21987223
O      -4.07208071     2.36873450    -7.97857977     0.50819628     0.13330900     0.00345952
O      -7.89472489     2.41310036    -3.95439023     0.05770095    -0.62289122     0.89699869
O      -7.80577970     2.30901245    -7.84346392    -1.25668317     1.64355645    -0.77043015
O      -3.98102344     6.26435263    -3.92029741     0.40407449     1.24842918    -0.55188543
O      -3.89492943     6.36834244    -7.95759578     0.26381768     0.51984962     0.08620421
O      -7.91769852     6.32687024    -3.92605549     0.91126893    -0.51263622     0.17266631
O      -7.82061245     6.37329672    -7.93658397     0.29037668     0.68598877    -0.26130613
O      -3.90018937     4.35997100    -1.90067366     0.19833135    -0.10055331     0.11870070
O      -3.89274051     4.33196861    -5.97789901     0.00712095     0.29827269    -1.45844214
O      -7.78793763     4.26716743    -9.78702226     0.02239043    -0.06769569    -0.45896637
O      -7.64606855     4.46889615    -5.95854427    -0.43445285    -0.40880630    -0.11696863
O      -3.83465535     0.01413339    -2.21329467    -1.72583886    -0.20071306     0.35015437
O      -4.02804721     0.15571553    -5.97509591    -0.76650690    -0.48076850    -0.32809241
O     -11.58715147     8.62096746    -6.03577809     0.82279857     0.16517323    -0.59662856
O     -11.60958600     8.54604096   -10.07340975     0.66251286    -0.06238293    -0.03909589
O      -9.77212127     4.39954855    -8.04277100    -0.12438458    -0.13226954     0.48103645
O      -9.71314768     4.19316809    -4.01482782    -1.53533918    -0.19166535     0.03389659
O      -5.98878375     4.10337175    -3.99448787    -0.75281190    -0.28514916     0.49669100
O      -5.80901599     4.68398733    -8.03995992    -0.03614840     0.63677804     0.13393646
O      -1.86028018     0.38218414    -4.08242818    -0.22718130     0.32606036     0.46428184
O      -5.83574631     8.71237373    -7.94384027    -0.02881734    -0.34275976    -0.57488509
O      -6.01710063     0.34913035    -4.11911570     0.91019353    -0.21284954     1.33693488
O      -9.66336962     8.24846654    -8.24664986    -0.03744620    -0.61838978     1.53595342
