# total energy = -630.81619853 eV

CRYSTAL
PRIMVEC
        0.00279571     0.02951795    -7.98606283
       -7.83802570     0.01298533    -3.99532603
       -3.92160916     8.71933433     0.00634407
PRIMCOORD
56 1
Li     -3.97716726     2.07024995    -1.96183479     0.83936206     0.29751479     0.16871492
Li     -4.21082581     2.17180033    -5.95433878     0.94594317     0.33035953    -0.20271586
Li     -7.78212121     2.36144246    -9.96900770    -0.52047983     0.13683893    -0.34993994
Li     -7.73578677     2.29428246    -5.97556323    -0.77019152    -0.12200221     0.05328362
Li     -3.87380389     6.39937473    -1.92563869    -0.06499281     0.36254160    -0.21828663
Li     -4.07615564     6.42483487    -5.92379854     0.52123572    -0.18706648     0.20393973
Li     -7.98495419     6.57796165    -9.75686571     0.23035402    -0.04815869    -0.73842776
Li     -7.80445154     6.61271648    -5.90035581    -0.08873646     0.00536366     0.02097614
Ti     -2.10401790     2.15688211    -4.14302878     1.13307534     0.05715231     0.33152434
Ti     -5.87274823     6.68051884    -8.04048534     0.03640675     0.12973745     0.96591373
Ti     -7.74549564     4.35114513    -7.71564217    -0.10347986    -0.28461053    -0.98050177
Ti     -7.74695329     4.48571918    -3.77158658    -0.16811136    -0.93669089     0.16842487
Ti     -3.73944258     4.35211930    -7.79179751    -0.44673127     0.09205127     0.52429172
Ti     -3.83273826     4.41884347    -3.75902628    -1.18516834    -0.12511027    -0.37155718
Ti     -6.04512622     8.70312960    -2.07938157    -0.67293693     1.38340739    -0.37794933
Ni     -5.82796944     2.33128784    -8.15115274    -0.05327234     2.44403768     1.31164420
Ni     -5.96877698     2.20582339    -3.91578593     0.05577091    -0.19162750     0.29504021
Ni     -9.79937819     6.50361353    -7.84847882     0.14377869     0.37069949     0.00052070
Ni     -9.85615538     6.52932658    -4.04319592     0.77488921     0.69421560    -0.07321196
Ni     -1.87268640     2.08138600    -8.02839959    -0.66903160    -0.15852326     0.70419962
Ni     -5.89772115     6.56540380    -3.99000436     0.42785225     0.32935652     0.17912575
Ni     -5.86420950     8.61269713    -6.02960325    -0.87432192     1.64746303     0.40931106
Mo     -6.08869287     0.08998023   -10.22115104     1.22124074    -1.06677680    -1.02329890
Mo     -5.87454347     0.04221085    -6.26205332    -1.04925645    -1.64218911    -1.26784844
O      -1.90492719     1.95247919    -2.09939154    -0.06185075    -0.46893993     0.58605845
O      -1.93975642     1.77658893    -6.06393427    -0.14755912    -0.04534690     0.06875840
O      -5.90622226     6.78763036    -1.95236472    -0.19890185    -0.48158499    -0.87427600
O      -5.90807581     6.81052409    -6.02404038     0.00715568    -0.22787988     0.51622355
O      -5.79893414     1.94879972   -10.02284043    -0.94624666     1.07592582    -0.97500194
O      -5.99545072     1.77271000    -5.70392506     0.75379444     1.98942143     0.16958909
O      -9.80511908     7.05552110    -9.67525037    -0.06814422    -0.91852453     0.24270142
O      -9.70283719     6.82543198    -6.01051555    -0.70231804    -1.01218859     0.35928854
O      -4.02187982     2.38090041    -3.97107000     0.56931045     0.00119449    -0.42891279
O      -3.81446121     2.45359810    -7.86115686    -0.22341577    -0.31079276    -1.09047920
O      -7.87132981     2.32617430    -3.93141237     0.58841801     0.85506945    -0.26169893
O      -7.71549888     2.48306420    -8.13448366    -0.77935666    -0.95560816     0.91377543
O      -3.82707828     6.30640119    -3.90862041    -0.15357980     0.91349647    -0.49655471
O      -3.99409701     6.43391561    -7.93020272     0.28454217    -0.34463958    -0.46634957
O      -7.88984776     6.41315920    -3.94347564     0.07380522     0.05528730     0.08257968
O      -7.89185278     6.28276095    -7.87574191     0.40188120     0.50963713    -0.55340815
O      -3.90662877     4.43107384    -2.01078192    -0.02477582    -0.33119093     0.91783443
O      -4.08127184     4.46366956    -6.04854365     0.64816936    -0.16652810     0.03434396
O      -7.83728871     4.24556277   -10.01601523    -0.07186414     0.94919279    -0.28474970
O      -7.67475971     4.22159254    -5.98884393    -0.55668109     0.05085424     1.23811223
O      -3.98771542     0.12648460    -9.98684929     0.71477226    -0.40839422    -0.44020677
O      -7.95237909     8.64997926    -6.06607414     0.48083272     0.47124998     0.18347477
O     -11.62129937     8.62596571    -6.10100805    -0.16898530    -0.36618121     0.34699548
O      -3.90870103     8.70745293    -6.06143485    -0.60935876     0.39112153    -0.01336111
O      -1.97532526     4.09959588    -4.11951309     0.32368373    -0.60402104     0.15939404
O      -9.71569358     4.69034985    -4.08273870    -0.85254950    -0.23261897     0.16885036
O      -5.84246379     4.67154036    -4.01511560    -0.10479082    -0.18598257     0.14521362
O      -5.87521246     4.35391549    -8.06641363     0.83115080     0.12343883    -0.29478229
O      -1.82463471     0.23737230    -4.00648932    -0.72575983    -1.14555476     0.11246970
O      -6.02261124     8.56650630    -8.06317940     0.68889322    -1.17370179    -0.07000173
O      -9.85163564     8.43119688    -4.05466159     0.08726171    -0.35871582     1.21002928
O      -5.93790195     0.58751300    -8.04536802     0.40364707    -1.21633199    -0.76883337
