# total energy = -630.30785739 eV

CRYSTAL
PRIMVEC
        0.00285542     0.02004370    -7.95977623
       -7.82940539     0.00763210    -3.98158109
       -3.91729101     8.74642787     0.01461334
PRIMCOORD
56 1
Li     -4.06889456     2.19201098    -2.04453906     0.53751090     0.27294283     1.02517094
Li     -4.10629112     1.99018931    -5.83126683     0.21035977     0.31202937    -0.47905715
Li     -7.86226662     2.33140965    -9.84442438     0.05450840    -0.39527842    -0.31268758
Li     -7.77597991     2.31264313    -5.85278241    -0.72917177     0.19424315    -0.16595633
Li     -3.91307886     6.35308106    -1.96157419     0.04408081     0.06056049    -0.28340465
Li     -3.88337767     6.47641112    -6.05434128     0.18922207     0.06569222     0.85368847
Li     -7.89266367     6.56353765    -9.95931460     0.58097444    -0.02612978     0.28353471
Li     -7.93516244     6.42688800    -5.84654238     0.46502548    -0.00916397    -0.10194665
Ti     -2.01929962     2.02977790    -3.97395184     0.52117299     1.35849685    -0.44276960
Ti     -5.84426818     6.54929399    -7.91898285    -0.55906230     0.16651168    -0.94868067
Ti     -7.97167026     4.43414225    -7.74288344     0.98637334    -0.59221031    -0.38272412
Ti     -7.85059210     4.33604163    -3.58937489     0.07786374     0.71394067     0.44456238
Ti     -3.75552790     4.37258599    -7.73406608    -0.74636688    -0.29006742     0.23038391
Ti     -3.92463149     4.34102770    -3.84351352     0.19546968     1.12691257     0.60698989
Ti     -5.75496794     8.69585681    -2.07734438     0.23175044    -0.90184157     0.98973827
Ni     -5.90927950     2.44285540    -7.93136902    -0.00952835    -0.56206071    -0.48687928
Ni     -5.93218933     2.36996845    -3.92927251    -0.88171007    -1.48889088    -0.56794481
Ni     -9.76872749     6.69367391    -7.87293480    -0.85715154    -0.37150590    -0.90498839
Ni     -9.72570495     6.52939520    -3.86365365    -0.28089622     0.12517495    -0.71291133
Ni     -2.08554326     1.93009641    -7.97690671     0.61146835     0.73349196     0.67512975
Ni     -5.81324965     6.63448156    -4.14045029    -0.27188147    -0.44883849     1.89769455
Ni     -5.64455963     8.74383490    -6.01205821    -2.26830304     1.49027969    -0.16917259
Mo     -9.76697898     8.73204958   -10.20947863    -1.19315268     0.73647912     0.96542200
Mo     -9.84916874     8.65476334    -6.37727236     0.71668999     1.80041908     1.28165792
O      -1.98915310     1.85576012    -1.96969798    -0.42502078     0.30778931    -0.22293185
O      -1.98760186     1.83055116    -6.02452621     0.11814417    -0.12086900     0.03830988
O      -5.81052636     6.81477256    -2.07616814    -0.80558417    -0.61961797     0.35729803
O      -5.78478669     6.98138462    -5.96509664     0.03332842    -1.56158344    -0.73648708
O      -5.89480924     2.10757261    -9.96388808    -0.45508177    -0.14235684    -0.13007131
O      -6.02250254     1.91983156    -5.89551512     0.76843995     1.02508342    -0.60890939
O      -9.75769384     6.82087096    -9.87006721    -0.62256867     0.42503524     0.38193530
O      -9.76191347     6.82855559    -5.94366755    -0.64908032    -0.71215354     0.01119954
O      -4.02298142     2.36868847    -3.86133307     1.02948275    -0.15014772    -1.40624740
O      -3.96465562     2.50469275    -7.88114459    -0.13902450    -0.97852757    -0.54685430
O      -7.92044377     2.42410406    -3.94350308     0.11791198     0.53296652     0.53856567
O      -7.88540101     2.40250641    -7.95848868     0.38720157     0.43060580     0.30040721
O      -3.89539530     6.42780485    -3.92949457     0.71390528    -0.66009394    -0.62918656
O      -3.88920691     6.37748193    -8.01494380    -0.27660620     0.19356644     0.67180444
O      -7.77804486     6.36357825    -3.96346269    -0.17424805    -0.41411347     0.21268576
O      -7.86187117     6.49347744    -7.89203487     0.66772696    -0.84086640     0.13735975
O      -3.96808542     4.42979978    -2.07999134     0.14118302    -0.08428903     0.28384646
O      -4.08493695     4.47955173    -5.99018893     0.08901498     0.27281840     0.71570336
O      -8.11936742     4.57570990    -9.75270188     0.90438011    -0.47762478    -2.14881533
O      -7.97963150     4.41937086    -6.00217845     0.00924949     0.32560442     0.97133205
O      -7.95849857     8.74453868    -9.93841486    -0.14820311     0.09052118    -0.34042467
O      -4.19324481     0.09468456    -6.16992143     0.58506329    -0.53611999     0.78970875
O     -11.71704138     8.72458781    -5.92203623     0.43190272    -0.06142615    -0.33438814
O      -7.78048897     0.03706696   -10.06597709     2.97089786    -0.24970509    -0.06358693
O      -1.98721748     3.95288338    -3.95480154    -1.48589962     0.43966056    -0.32173035
O      -9.77760221     4.56298802   -11.78440234     0.70889388     0.29002123    -0.91340815
O      -5.94883385     4.29876656    -3.91527752    -0.10929638    -0.09577112    -0.34356623
O      -5.88857224     4.49652085    -8.02211981    -0.71040509     0.42257327     0.27808087
O      -1.85414574     0.13244502    -4.03852352    -0.44137837     0.04405865     0.38780234
O      -5.89513318     8.50402742    -8.05911003     0.03485132    -0.36010244     0.26359443
O      -5.84465874     0.40747342    -4.01093444    -0.14839363    -0.22066427    -0.12044869
O      -5.86694683     0.57572680    -8.09996073    -0.81463452    -0.08914151    -0.65133018
