# total energy = -630.90702126 eV

CRYSTAL
PRIMVEC
        0.00279571     0.02951795    -7.98606283
       -7.83802570     0.01298533    -3.99532603
       -3.92160916     8.71933433     0.00634407
PRIMCOORD
56 1
Li     -3.93346206     2.08834713    -1.86473866    -0.43789787     0.54536941    -0.12597746
Li     -3.90189756     2.27711295    -6.04122400    -0.32899248    -0.05313270     0.35148318
Li     -7.73348299     2.34836573   -10.02569967    -0.37039172    -0.01631568     0.24353034
Li     -7.86355639     2.25445493    -5.93624372    -0.18567049     0.05185967    -0.11589975
Li     -3.95921188     6.42895528    -2.06539086     0.37871017     0.22511600     0.32426396
Li     -3.93597944     6.43383645    -6.03604775    -0.12243153     0.03362177     0.57165705
Li     -7.88294560     6.74723028   -10.02310498    -0.21650257    -0.46110459     0.14633084
Li     -7.78049585     6.61913212    -5.87834973    -0.20431465    -0.21560032    -0.22401753
Ti     -1.95317077     2.14754013    -4.07786529    -0.09395914     0.03018100     0.90640827
Ti     -5.81713186     6.60405237    -8.04753997     0.02437483    -0.75423011     1.67791917
Ti     -7.78417911     4.48943689    -7.78345093    -0.01983964    -1.95338950     0.77761793
Ti     -7.80988437     4.35331009    -3.76246874    -0.08685548     1.20347039     0.37555403
Ti     -3.80365259     4.31935167    -7.82191774    -0.63889862    -0.80301467     0.37613799
Ti     -3.89076223     4.39917717    -3.79981244    -0.97998428    -0.57994800     1.67191204
Ti     -2.08348626     0.05731355    -1.89898740    -0.07076203     2.06314165    -0.54038752
Ni     -5.98467878     2.08542193    -7.95492646     1.31815869     0.40082992     0.57153773
Ni     -5.85700105     2.52893041    -4.06638960    -0.06539571    -0.47309846     0.06078087
Ni     -9.78610047     6.41227410    -8.02018456    -0.93811316    -1.49551332    -0.20547820
Ni     -9.77738812     6.37451081    -3.99662800     0.37386292     1.45650714    -0.67357873
Ni     -1.87962530     2.23677033    -7.90636514    -1.03693723    -0.29013747    -0.80179577
Ni     -5.97028169     6.55713597    -3.96689195     2.10064536    -0.19055327    -0.56019663
Ni     -2.00404335     0.10718534    -6.04124475     0.73878437    -0.34469152     0.39964271
Mo     -9.90457363     8.72409633   -10.18826556    -1.15248806     0.79993601     0.05538683
Mo     -5.86177717     0.03220914    -6.29752349    -0.83911983     0.79247140    -0.11876215
O      -2.06436943     2.09235716    -1.88021142     0.88646416    -1.77842097    -0.43672157
O      -1.83480068     1.95204274    -5.98199229    -0.58406838     0.24347348    -0.92129377
O      -5.98219693     6.87059250    -1.94893468     0.90624005    -0.37924684    -0.79614414
O      -5.85440500     7.00901859    -6.06315939    -0.55714246    -0.33052333     0.05184106
O      -5.91543937     1.92669976    -9.95817435     0.36244524    -0.59342620     0.58180014
O      -5.96089209     1.98913878    -5.99908345     0.49941106    -0.26952468    -0.06678225
O      -9.83961974     6.73818017   -10.02662589     0.24107689    -0.68170943     0.00665685
O      -9.77106164     6.82566895    -5.97801168     0.04388266    -1.14719195     0.74045934
O      -3.89203220     2.38979677    -4.01573210    -0.24834955     0.20758007    -0.50552274
O      -4.04777130     2.28173324    -7.89683795     0.06872421     1.36053547    -0.46949070
O      -7.81779054     2.47126081    -4.07218996     0.79198392    -0.54236869     0.34287018
O      -7.82289366     2.44045212    -7.90021185    -0.68757252     0.05951943    -0.46743976
O      -3.96492662     6.29373804    -3.97996435     0.12871450     0.40426890    -0.05635370
O      -3.88707827     6.34178456    -8.02821972    -0.24141775     0.04327452    -0.26978017
O      -7.74679766     6.39264254    -3.94765386    -2.00454225    -0.35903527    -0.05858933
O      -7.84622129     6.32218448    -7.98863096    -0.08002000     2.14551653    -0.76976206
O      -4.02795543     4.19434254    -1.97837634    -0.10718459     0.75282880    -0.86636824
O      -3.94734331     4.39260835    -6.02686153    -0.15827595    -0.43383749    -0.84301813
O      -7.84698671     4.29432741    -9.98654431    -0.07966066     0.23031937     0.27584991
O      -7.84155866     4.57587027    -6.03491581    -0.23844989    -0.62109880     0.00501774
O      -7.94070957     8.68971250   -10.01206619     0.27237266     0.68165672     0.31581917
O      -4.05347079     0.15337788    -6.19177917     0.28003425    -0.23331950     0.66335624
O      -7.69675459     0.02150138    -6.05335115    -0.81021874     0.24173866     0.08935414
O     -11.71384173     8.72731773    -9.99150463     1.01618630     0.23488044    -0.13899166
O      -2.05402090     4.31200232    -4.06803709     1.85361025     0.58823798     0.04513312
O      -9.74950196     4.40643080    -4.05996587    -0.62072399     0.25434658     0.00577116
O      -5.93310498     4.51809582    -4.02477815     1.00062029    -0.28863669    -0.43120773
O      -5.86762651     4.72255537    -7.93570837     0.22550920     0.10866976    -0.48534138
O      -1.96796427     0.31100898    -4.03267337    -0.08350894    -0.35873960     0.76657411
O      -5.88447712     8.71273672    -8.03846145     0.21783703    -0.66181138    -0.01298312
O      -9.82180338     8.52867488    -3.96541566     0.17499803    -0.56164300    -0.75748588
O      -9.87861920     8.15246959    -8.06281673     0.36536569     1.57890832    -0.55708462
