# total energy = -630.96599285 eV

CRYSTAL
PRIMVEC
        0.00285542     0.02004370    -7.95977623
       -7.82940539     0.00763210    -3.98158109
       -3.91729101     8.74642787     0.01461334
PRIMCOORD
56 1
Li     -3.85287758     2.19067588    -1.87680256     0.15600964     0.24888350    -0.78199965
Li     -4.10161262     2.25880418    -6.03624526     0.71542640    -0.06798478     0.28178817
Li     -7.89795519     2.10818511    -9.94660800     0.29613506     0.28003169    -0.23186570
Li     -7.80723732     2.09384023    -5.80263037     0.10992458     0.20707631    -0.50004517
Li     -3.91922243     6.42232886    -2.00949624     0.00868222    -0.04818117     0.12539624
Li     -3.90682424     6.55777761    -5.91431046     0.14815490    -0.10018547    -0.11349691
Li     -7.78600295     6.54576128    -9.87741304    -0.78212174    -0.46588028    -0.25537924
Li     -7.93748748     6.56774579    -5.85187985     0.77933168     0.01403180    -0.71349049
Ti     -1.91535265     2.19415305    -4.05395668    -1.18268785    -1.47369476     0.64693917
Ti     -5.87621994     6.78874192    -7.89736646    -0.18224126    -0.69283133    -0.00175476
Ti     -7.92700795     4.39024957    -7.66743597     1.25480106     0.13695390    -0.43588753
Ti     -7.91469533     4.26102113    -3.70449788     0.91144469     0.87882185    -1.62058412
Ti     -3.91421362     4.33978125    -7.80421112    -0.09735785     0.35258446     0.39517169
Ti     -3.88387241     4.43211428    -3.87026981    -1.46988866    -0.63516121     1.99796528
Ti     -6.07886552     8.67271845    -2.09119977     1.18724882     1.80259379    -0.84431544
Ni     -5.91632994     2.40789210    -8.03278446    -0.27502403    -0.28665007     0.09916242
Ni     -5.81692379     2.18728985    -4.02664257    -0.30425055     0.17447320     0.06178839
Ni     -9.84822917     6.63856013    -7.86969305     1.04020298     0.29697689     0.67489208
Ni     -9.71211276     6.48034282    -4.01533435    -0.21455198     0.71360472    -0.24601710
Ni     -1.92095850     2.17924454    -7.90429950    -0.39790124    -0.67329593    -0.94114892
Ni     -5.84661586     6.43655180    -4.01770017    -0.82204774     0.24207237     0.00020171
Ni     -2.02013151     0.04577581    -5.92294572    -0.36399425    -0.70762153    -0.32260781
Mo     -5.94111868     0.13015169   -10.11800153    -0.19939872    -1.04209628    -2.04255518
Mo     -9.82574691     8.69159171    -6.26468725     2.11246449    -0.37123346    -1.55672624
O      -1.80673090     1.91306625    -1.92153757    -0.99796749    -0.48316366     0.03437586
O      -2.07849740     1.84122561    -6.03755139     0.34353868     0.72143286     0.23117175
O      -5.92302458     6.80324661    -2.03492825     0.24807951    -0.48262791     0.18173807
O      -5.92571426     6.94339374    -5.97791471     0.70109060    -0.27033877     0.52402093
O      -5.85249959     2.04584799   -10.13600675     0.24425331     0.24381416     0.83500591
O      -5.92541908     1.93683882    -5.92258909     0.39764355    -0.32475528     0.41078543
O      -9.77944190     6.97427460    -9.67173749     0.25768391     0.11181937    -0.48699115
O      -9.76630446     6.69404435    -5.98994722    -0.70320496     0.81028155     0.09919346
O      -3.87620384     2.33011459    -3.89697562    -0.54614613     0.68120324    -0.71879183
O      -3.97547460     2.42701861    -8.04380056     0.60467027     0.61506219     0.79664068
O      -7.81789122     2.30887852    -3.96311054     0.05218306     0.65712730     0.70680280
O      -7.87345619     2.37108478    -7.99815881     1.29853456     0.54022170    -0.14295004
O      -3.83998186     6.45466083    -3.98847953    -0.69902950    -1.05026101    -0.13658483
O      -4.02210929     6.33475951    -8.04196081     0.04757398     0.09159341     0.98385249
O      -7.82682115     6.33582698    -4.11671374     0.62596580    -0.80966195     1.85666453
O      -7.87284847     6.34169822    -7.86726858     0.31424973     0.35009797    -0.42622120
O      -3.75755016     4.46355362    -2.03824806    -0.12530784    -0.23764647    -1.34246323
O      -3.82307617     4.36448272    -5.99008701    -0.08668151     0.20772769    -0.84571842
O      -7.92701231     4.43716929    -9.95493810     0.46787025    -0.03677337     1.16434360
O      -7.68574050     4.35499060    -5.95864470    -0.65542250    -0.22878900     0.14563788
O      -3.92196696     0.08469201    -9.91367266    -0.43357790     0.06658564    -0.20880921
O      -8.02507770     8.67884757    -5.79210582     0.10367534     0.29829374    -0.82224685
O     -11.55075540     8.67213949    -6.00042307    -1.40218913    -0.17092780     0.58763376
O      -7.68627026     0.11954328    -9.96843404    -1.02894157    -0.01665544    -0.29268052
O      -1.95184014     4.02475875    -4.08183750    -0.16760618     1.69707249     0.13492419
O      -9.74544865     4.66131510    -3.97967433    -1.17272932    -0.50460511    -0.38176699
O      -5.84540526     4.45030366    -4.09133986     0.41481134     0.04227147     0.57610560
O      -5.95521327     4.30851060    -8.09535446     1.05231740    -0.03271827     0.32914400
O      -1.76411414     0.26345063    -3.99195036    -0.69822930    -0.91005405     0.41520534
O      -5.79924803     8.59521061    -8.04344234    -0.21645759    -0.35669362     0.48725279
O      -9.66899163     8.34943334    -3.91890740    -0.62473112     0.29789435     0.61831558
O      -5.83108274     0.52633212    -8.10197839     0.04254177     0.35804561     1.17000600
