# total energy = -630.48629243 eV

CRYSTAL
PRIMVEC
        0.00279571     0.02951795    -7.98606283
       -7.83802570     0.01298533    -3.99532603
       -3.92160916     8.71933433     0.00634407
PRIMCOORD
56 1
Li     -4.04289976     2.44022134    -1.93428463     0.00575392    -0.72817937     0.60128321
Li     -3.96319075     2.06038596    -5.99353156     0.36374672     0.37468492    -0.09889126
Li     -7.69072593     2.25249681    -9.94469990    -0.47386882    -0.13654764     0.20605890
Li     -7.84969026     2.02480283    -6.11831551    -0.25445289     0.51490552     1.10181386
Li     -3.80831353     6.55422616    -1.99138450    -1.01497267    -0.28842244    -0.13337522
Li     -3.79206527     6.56426792    -5.77031617    -0.54569953     0.03297446    -0.38667520
Li     -7.83782533     6.61380868   -10.10869949    -0.22514643     0.12583827     0.50284761
Li     -7.73291650     6.31729140    -5.95438428    -0.32574739     0.24955669     0.03473044
Ti     -1.96761710     2.28429881    -3.97210424     0.39826867     0.12089953    -0.77098921
Ti     -5.87294329     6.72907372    -8.03275947     0.10149656    -0.11762126     0.10687932
Ti     -7.71478551     4.48721328    -7.77379537    -0.61150041    -1.83378236     0.65525817
Ti     -8.03430691     4.40950723    -3.68089111     1.42875875    -0.59419807    -0.99447356
Ti     -3.91684373     4.52323600    -7.65382284     0.30479962    -1.38458010    -1.18856602
Ti     -4.05782978     4.35539992    -3.71415252    -1.08831288     1.48825370     1.30998344
Ti     -1.84070232     0.01394381    -2.07737258    -0.44945202    -0.28629063    -0.82389437
Ni     -5.87121949     2.19950142    -7.79501123     0.62915031    -0.45198580    -1.30859557
Ni     -5.93928216     2.33310526    -4.04500214    -0.47265560     0.22401010    -0.21738377
Ni     -9.82097394     6.28777420    -8.00389479    -0.07629648     0.54257941    -0.50092933
Ni     -9.80797035     6.69997690    -4.05783503    -0.57318017    -0.42426735     0.49745121
Ni     -1.96190980     2.20603116    -7.93824458    -0.45118584     0.06364816     0.08733658
Ni     -6.00183546     6.70793748    -3.99088278     0.58995082    -0.47329400    -1.06124686
Ni     -5.74568102     8.70555594    -5.95569270    -0.26565639     0.38216420    -0.44169688
Mo     -9.80042992     8.68535019   -10.34192034     1.53948958     0.95945605     0.91850299
Mo     -9.69742010     8.68798860    -6.32622576    -1.05661225     0.76371924    -0.57344806
O      -2.13192061     1.94777342    -2.04182597     0.96683783    -0.08861835     0.01726901
O      -1.88113420     1.79958156    -5.98474620    -0.33170841     0.59429511     0.04605826
O      -5.96078239     6.75908086    -2.11553665     0.47960333     0.62974688     0.77432282
O      -5.79614703     6.88193588    -6.00052504    -0.48630475    -0.32102607     0.57162769
O      -5.86134696     1.77630200    -9.72725175     0.34236109     0.47648510     0.23647152
O      -6.02400152     1.99685191    -5.96023321     1.39076266    -1.43122864    -0.75142193
O      -9.72636577     6.77554445   -10.17865748    -0.83121659    -0.57834736     0.44026808
O      -9.87863742     6.76912875    -5.84931544     1.03682898     0.55419484    -1.01926623
O      -4.01530122     2.52151940    -4.12159042     1.21374512    -1.65604975     0.51601934
O      -3.99598442     2.43934047    -7.94371024     0.05547370     0.41452509     0.87127016
O      -7.81294739     2.36714002    -3.89710174    -0.65432597     0.94356339    -0.38569826
O      -7.74985547     2.33213750    -7.94529725    -1.53347101     1.07790571    -0.19140146
O      -3.93534110     6.25707988    -3.91704535     0.16414981     0.45744566    -0.15516512
O      -3.92628269     6.51146823    -8.00357115     0.07421530    -0.70667266     0.21326690
O      -7.99294557     6.40664284    -4.13134840     1.34894846    -0.82964446     0.91709392
O      -7.85306962     6.38686634    -8.08295831     0.19522748    -0.21734337     0.97293955
O      -4.06414256     4.27634665    -1.90114385     0.44691554     0.60116836    -1.74042719
O      -3.86987044     4.43074720    -5.92165231    -0.10613870     0.31742660    -0.23151007
O      -8.07094506     4.42000897    -9.90993562     0.75242631    -0.14936228    -0.26937856
O      -7.86538549     4.33644129    -6.00114021    -0.00794293     0.41123264    -1.26325051
O      -7.90380684     8.65015806   -10.01628431    -1.26026020     0.12390264    -0.50392827
O      -7.95043827     8.67537468    -6.14963025     0.25674414     0.65213492     0.27191890
O     -11.68956778     8.69828315    -6.04671419    -1.09846131     0.36058225    -0.19049088
O     -11.60253391     8.71581208   -10.05426436    -0.39316869    -0.54263575     0.19921401
O      -1.94715708     4.28804001    -4.03833849    -0.52159603    -0.24175181     0.53237528
O      -2.00751070     4.10605361    -0.08764992    -0.66356156    -0.13742634     0.18790962
O      -5.99226808     4.24324117    -4.09233468     0.01455029    -0.37568562     0.65137080
O      -5.85028977     4.63636134    -8.04646239     0.17011026     0.71876956     0.43315118
O      -2.06478276     0.32194029    -3.99503997     0.40591360    -0.25654145     0.10196476
O      -5.89351156     8.58709927    -8.08619847     0.21031145     0.28271054     0.30007746
O      -5.95248821     0.36017805    -4.14237430     0.63071555     0.43545473     0.10786644
O      -9.88112623     8.12945578    -8.07518381     0.21899317    -0.09523420     0.61474353
