# total energy = -630.67845115 eV

CRYSTAL
PRIMVEC
        0.00279571     0.02951795    -7.98606283
       -7.83802570     0.01298533    -3.99532603
       -3.92160916     8.71933433     0.00634407
PRIMCOORD
56 1
Li     -3.96865695     2.14497120    -1.90866564    -0.19865250     0.46460018    -0.15327150
Li     -4.01461652     2.30845393    -5.98258101     0.58817892    -0.07603775     0.04009320
Li     -7.58052242     2.40008935    -9.99970154    -0.85113870     0.10099529     0.07608642
Li     -7.83614026     2.12708141    -6.01904999    -0.28662168     0.57385917     0.53307258
Li     -3.90300414     6.59645442    -1.90626019     0.51393762    -0.27499154    -0.24752791
Li     -4.01134747     6.35318978    -5.82290300     0.05508277     0.04800592    -0.77221831
Li     -7.76669578     6.63940152   -10.03020439    -0.14889833    -0.52706311     0.36526435
Li     -7.90117702     6.34138857    -5.91903058     0.28178357     0.68168917     0.47394883
Ti     -1.97000552     2.18569040    -4.14780703    -0.23011549     1.53420562     0.27712826
Ti     -5.85815039     6.76122770    -8.04189539     0.10325450    -0.65717393     1.05850689
Ti     -7.72079603     4.44834587    -7.70403717    -1.20308103    -0.38528129    -0.53465832
Ti     -7.92047536     4.36487970    -3.80976332     0.90019659    -1.20035561     1.81508675
Ti     -3.88683969     4.36948473    -7.80374622    -0.19346643    -0.05946952     0.91762360
Ti     -4.11817974     4.41035447    -3.69447539     0.98281914    -0.61646314     0.19546124
Ti     -2.19980541     0.12121989    -2.16040328     0.77334712    -0.18887127     1.04212704
Ni     -5.85733871     2.27195283    -7.81725447    -0.24527229    -0.91170502    -1.72315132
Ni     -5.85490210     2.26559443    -4.03856997    -0.63007297    -0.26115897    -0.39801080
Ni     -9.73006057     6.37605170    -8.10422832    -1.26337563    -1.15782531     0.81528563
Ni     -9.71921183     6.43737759    -3.93521510    -0.36885868     0.48457411     0.38986020
Ni     -2.01718182     2.17653979    -8.00576758     0.80497681    -0.35107446     0.00800134
Ni     -5.88805197     6.77938761    -3.88646623     0.50942149    -0.75304814    -1.37892104
Ni     -2.07185726     0.07749007    -6.04424950     0.16941202    -0.64806689     0.38733860
Mo     -9.90532251     8.68498846   -10.28553964     1.17875928     0.35506912     0.20232116
Mo     -5.90742651     0.02997846    -6.29418675     2.49283410    -1.16850813    -0.61446072
O      -2.05392919     2.01543865    -2.14494798     0.40617876    -0.84862903     1.04530406
O      -1.95992736     1.95056425    -6.07689639    -0.29370057    -0.66555041     0.25360485
O      -5.78312984     6.79517383    -1.96209277    -0.32462774     0.39829210    -0.68067519
O      -5.91046847     6.93729581    -5.81257077    -0.15810067     0.51333104    -0.58572553
O      -5.86077958     1.74754707    -9.69793975     0.20271180     0.62659149     0.50171370
O      -5.84058919     1.95952534    -6.04651502    -0.29671144     0.87773734     1.16668859
O      -9.67071705     6.82644834   -10.04914329    -0.46854787    -1.46541922    -0.39693025
O      -9.81860560     6.83531568    -5.70936566     0.03433137     0.87298554    -0.95948733
O      -3.92989885     2.37696099    -3.91684433     0.42735092     0.54939175    -0.93885054
O      -3.99895892     2.28198931    -7.99609820     0.13558714     1.47037603     0.64250508
O      -7.83907967     2.31382242    -4.03246030     0.33567427     0.48017480    -0.00435007
O      -7.91830701     2.49785259    -7.95245141     1.37031774    -0.51764546    -0.01958072
O      -3.88584599     6.27326697    -4.02438099     0.04034020     0.38313350     0.94696173
O      -3.86163420     6.37536685    -7.95474427     0.12379770    -0.03131278     0.26769278
O      -7.72103649     6.26044062    -3.90945982    -0.88076374     0.79758301    -0.36831554
O      -7.86571495     6.41851633    -7.84523902     1.00559798    -0.38849739    -1.00821098
O      -3.89159392     4.22883409    -1.93686464    -0.24590802     0.52145822    -0.18676289
O      -3.82751422     4.37165360    -6.00224909    -0.25114769    -0.48986626    -0.98259574
O      -7.77337635     4.29262964    -9.98448707     0.10258046     0.46315675    -0.66197350
O      -7.84084474     4.41599453    -5.95038604     0.18249047    -0.27990074    -0.27685270
O      -7.88244912     8.60366338    -2.08654503     0.48562025     0.39703537     0.14871722
O      -4.01219024     0.10529373    -6.03482322    -0.60449497    -0.02179578    -0.24764339
O      -7.66400066     0.25310935    -6.08089336    -0.75112425    -1.21646162     0.22213984
O     -11.59304076     8.66337809   -10.16331575    -2.92046486    -0.09056776     0.19285230
O      -9.77358065     4.34897981    -8.07680670     0.02625679     0.30629556     0.25227311
O      -1.92164718     4.10028881    -8.03033473    -1.21593290     0.08763099    -0.07993705
O      -5.93480998     4.09586038    -4.02525797     0.39405437     0.04964848    -0.18953277
O      -5.83265537     4.77316021    -7.90944740    -0.08162093    -0.36413949    -0.29174956
O      -1.87272953     0.20324079    -3.99799926     0.05636107     1.12480184    -0.68289872
O      -5.92036893     8.61504001    -8.13204500     0.22264733     0.89425791     0.70786938
O      -5.67658017     0.41080994    -4.01386345    -0.73524500    -0.18737738    -0.84034846
O      -9.79219135     8.18461375    -8.07364148    -0.09973884     0.59270127     0.32854221
