# total energy = -630.22026100 eV

CRYSTAL
PRIMVEC
        0.00279571     0.02951795    -7.98606283
       -7.83802570     0.01298533    -3.99532603
       -3.92160916     8.71933433     0.00634407
PRIMCOORD
56 1
Li     -4.05396356     2.39177000    -1.96063942     0.75147320    -0.48197021     0.11394949
Li     -3.99824238     2.20465894    -6.08693065     0.23045128     0.30047340     0.17764265
Li     -7.71001117     2.41018836   -10.06405537    -0.47818896    -0.31216596     0.71683061
Li     -8.00275683     2.27792532    -6.07487738     0.64705174    -0.13816693     0.46306921
Li     -3.90550946     6.40746980    -1.82889214    -0.02802700     0.12286005    -0.36441729
Li     -3.84396622     6.40551790    -5.87477692    -0.30998626    -0.09938583    -0.08764028
Li     -7.78595420     6.48540287    -9.88990112    -0.60529549     0.09648562    -0.24232428
Li     -7.88067672     6.45290756    -5.91125462     0.12933056     0.20756254     0.13575220
Ti     -2.06760325     2.25006566    -3.96247649     1.60736453     0.31568073    -0.70719392
Ti     -5.85942598     6.76806614    -7.87442224     0.16811640    -0.14035757     0.10380101
Ti     -7.75082991     4.50597285    -7.76937085    -0.68386479    -1.52279222    -2.67204944
Ti     -7.94271843     4.36726801    -3.83158881     0.96874194     0.18156871     1.62730729
Ti     -3.92044371     4.37882380    -7.84198942     0.26237491    -0.56970181     1.61195284
Ti     -4.07456728     4.40871567    -3.80076759     0.24812326    -0.69820712    -1.03236536
Ti     -5.78795381     8.63408388    -2.11258840     0.50219575     0.41868347    -1.42973446
Ni     -5.87688139     2.21272337    -8.10349576    -1.28188187    -0.15014774     0.16325634
Ni     -5.91002202     2.20350066    -4.11554428    -0.03211709    -0.07224307    -0.11807132
Ni     -9.97039338     6.66915703    -7.84940277     2.26952763     0.26318216    -0.41113358
Ni     -9.78180118     6.54156480    -3.76613481     0.67729114     0.09554453    -0.88462562
Ni     -1.92959775     2.15225088    -7.94888554    -0.60488214    -0.43104096    -0.29701485
Ni     -5.87223632     6.48568305    -3.92969831     0.33251848     0.93116045    -0.46939101
Ni     -5.89053922     8.73305678    -5.93937051     1.19755043     0.71835215    -0.22574394
Mo     -5.84940173     0.04038774   -10.36108741    -0.50597508    -1.39008153     1.89425226
Mo     -9.70096325     8.68668881    -6.24027252    -0.16309379    -0.39006454     0.57006838
O      -2.07796315     1.89742174    -1.96850561     0.46219866    -0.35683031     0.00465163
O      -1.89891550     1.83932612    -6.05058313    -0.70966923     0.30622442    -0.05540141
O      -5.93484003     6.63692007    -2.03088392     0.88080289     1.37504025     0.74157434
O      -5.69976376     6.86840185    -5.90290785    -1.17720666    -0.05505462    -0.03747146
O      -5.81478614     2.09422566   -10.17806837    -0.30461973    -1.18390691     1.36934590
O      -6.03785593     1.91696833    -6.01167035     0.80368372     0.17622701    -0.43923847
O      -9.86957786     6.78466055    -9.88362193     0.48653668     0.75624153     0.39779198
O      -9.79778148     6.82173597    -5.82817070    -0.51477211    -0.33262012     0.07193521
O      -3.90665998     2.35613960    -4.01107275    -1.10287114     0.34545825    -0.59372025
O      -4.05296858     2.32894519    -8.01137077     0.75521703     0.84812690     0.05757383
O      -7.78749650     2.33140697    -3.97169550    -0.81639277     1.13493194    -0.59396222
O      -7.89256282     2.36962609    -8.02706453     1.12886151     1.42412123     0.12583689
O      -3.90897463     6.30927204    -3.89064693    -1.01651111     0.00680154    -0.06889560
O      -3.82389236     6.37703008    -7.86749001    -0.50977249    -0.17489712    -0.57883420
O      -7.74154522     6.37310103    -4.03416549    -0.96716698    -0.96609071     0.28719727
O      -7.82602325     6.51044703    -7.93485857     0.11440395    -0.63266517     0.60574208
O      -4.17798062     4.22784785    -2.06827351     0.77301803     0.73823966     0.83426190
O      -4.01578603     4.29792664    -6.06319674     0.39003438    -0.03719837    -0.22259165
O      -7.87765325     4.57574805   -10.00531317    -0.00692042    -0.86222955    -1.41194732
O      -7.95396230     4.47091023    -6.07712775     0.01106015     0.01318759     1.96398417
O      -7.91807111     8.57455978   -10.01716247    -1.19856731     0.63555340    -0.16045170
O      -7.90793022     8.67412787    -6.07777128    -0.75833378     0.28127991    -0.03339239
O      -3.90526046     8.66248974    -2.06414966    -0.77735682    -0.44570025     0.00700412
O      -7.65681359     0.13664560   -10.04816549     0.81107196    -0.61830596     0.14209005
O      -1.92337095     4.13307658    -4.06108639    -1.05983365     0.46689132     0.21842643
O      -1.99434243     4.14514218    -8.03411517     0.25780927    -0.19505455    -0.26786335
O      -5.92735702     4.02175732    -4.22551808    -0.43633453     0.91706834     0.39375288
O      -5.80654087     4.66741786    -8.05074583    -1.75642859     0.22070338     0.27231640
O      -2.09816457     0.28905713    -4.05070569     0.49124142    -0.71214595     1.02046726
O      -5.79210786     8.65601567    -7.98228841    -0.26567910    -0.91090672    -0.14080426
O      -5.92426508     0.33483564    -4.14059918     0.39778054     0.13776193    -1.03839372
O      -5.93162230     0.31531498    -8.00235732     0.08025989     0.38749487    -1.45764580
