# total energy = -630.62159007 eV

CRYSTAL
PRIMVEC
        0.00285542     0.02004370    -7.95977623
       -7.82940539     0.00763210    -3.98158109
       -3.91729101     8.74642787     0.01461334
PRIMCOORD
56 1
Li     -3.93234680     2.30845795    -1.93812759     0.16292157    -0.11580434    -0.03617944
Li     -4.00229180     2.14394091    -6.04162755    -0.01982056    -0.18990839     0.29727770
Li     -7.78529932     2.12255833   -10.00703787    -0.03829754     0.21784450    -0.03270620
Li     -7.85825787     2.24046094    -5.94723113     0.16950015    -0.01084436     0.41376943
Li     -3.93373522     6.42378784    -2.00769581     0.02813400    -0.20839791     0.10612732
Li     -3.90769332     6.66035698    -5.93300083     0.63219893    -0.17638437     0.50281255
Li     -7.93496773     6.59034798    -9.79855551     0.05076851    -0.36763770    -0.22746400
Li     -7.88107686     6.39347506    -5.93936262     0.06977079     0.45496403     0.02966523
Ti     -1.94152562     2.08440542    -4.07353875    -0.95494566     2.40571055     0.32685990
Ti     -5.82433734     6.64752738    -7.92911409    -0.97036543     1.77704272     1.12645290
Ti     -7.73308006     4.31831122    -7.69946704    -1.94539085     0.96974562    -2.40031196
Ti     -7.84915527     4.44965460    -3.72906418    -0.49629933    -0.50032134     1.31606214
Ti     -3.98243146     4.39613618    -7.65200920     2.02748074    -0.89364502    -0.17767719
Ti     -3.91938500     4.32445211    -3.78774360     0.26674985     0.41229426     0.42969815
Ti     -5.89170297     8.71924547    -2.07846553     0.10321818     0.70131468     0.84707648
Ni     -5.88639320     2.36755612    -7.97982680     1.53079301    -0.64952724    -0.80326234
Ni     -5.95341298     2.24077788    -4.01382984     1.11507382    -0.17064121    -0.40685339
Ni     -9.77828592     6.69144957    -7.85471732     0.09446685    -0.72432082    -0.44512553
Ni     -9.80013439     6.47266863    -3.98396969     0.25271497    -0.39889117    -0.50740704
Ni     -1.98112314     2.31690450    -7.84059891     0.28808757    -0.36229064    -0.93427797
Ni     -5.92196667     6.45498560    -3.96912405     0.81092503     1.16464310    -0.24146547
Ni     -5.74251467     8.68592243    -5.85154344    -0.80878908    -0.00410583    -1.37709991
Mo     -5.86343210     0.10569216   -10.29473779    -0.79946311     0.48982001    -0.42167755
Mo     -9.86844067     8.69204059    -6.34523917     2.21926384    -1.02327972     1.47373101
O      -1.94387248     1.84941760    -1.95109086     0.13586343     0.18960693     0.08567994
O      -1.92561234     1.80747188    -5.93106150     0.03968529    -0.13642738    -1.02177044
O      -5.89382513     6.80786857    -1.84223980    -0.32510518    -0.06086688    -1.78912109
O      -5.72285280     6.83902314    -5.89042028    -0.74016302     0.26380680     0.56213424
O      -5.83226844     2.09029783   -10.05072423    -0.64960055    -0.44323423    -0.17635446
O      -5.94137641     1.99239680    -6.00345630    -0.12166082    -0.57042064     1.16288435
O      -9.81315289     6.93090860    -9.82949063     0.50347441     0.29423833     0.52327402
O      -9.89118915     6.63280155    -5.95540519     0.63723476     1.74866529    -0.55086422
O      -3.94955126     2.32670467    -4.06585955     0.06662953     0.19936969     0.35187488
O      -3.92071353     2.40930763    -7.99211976     0.07728257     0.89046125     0.87213874
O      -7.80998052     2.50082138    -4.00095437    -0.82651654    -0.04461009     0.30109142
O      -7.68291044     2.42232884    -8.06878539    -2.13562108    -0.15825434     0.55739231
O      -3.74822686     6.36638521    -3.95139138    -1.04193175    -0.75088866     0.05669048
O      -3.93006702     6.38229042    -7.97532550     0.14944975    -0.71256242     0.40967668
O      -7.82825060     6.38350905    -4.07778856    -0.50863403     0.14686593     0.75523379
O      -7.74583922     6.39984648    -7.86429032    -0.78165516    -0.64292147    -0.09433122
O      -3.90455191     4.24506306    -2.02680190    -0.16069690     0.50031131    -0.47391856
O      -4.07091893     4.36220948    -5.89633168     0.14832407    -0.00306434    -0.42717805
O      -8.13481194     4.56738982    -9.92942285     0.85219546    -0.04127791    -0.59731357
O      -7.72985662     4.44205548    -5.99815481    -0.70316831    -0.27594750     1.69382821
O      -4.07628114     0.16174730    -9.99821512     1.94811272    -0.75936276     0.57354860
O      -8.07099161     8.67876992    -6.10886004    -0.80862184     0.02694739     0.01178981
O     -11.70225489     8.71284621    -6.04202137    -1.23335449    -0.20969787     0.37617194
O      -7.67442586     0.08982702   -10.04466801    -0.07548489     0.12659909     0.09326024
O      -1.93047389     3.94139147    -4.03590259    -0.11270174     0.48391650     0.51053815
O      -2.06839605     4.49829643    -0.02774039     0.50248947     0.14319077    -0.07750645
O      -5.92631768     4.62635691    -3.83866013     0.48730279    -0.97332315    -0.38852998
O      -5.87627703     4.35375009    -8.00833012     0.39794139     0.30574070    -0.43730520
O      -2.01952702     0.19206626    -3.96562634     0.35327462    -1.98751438     0.05265711
O      -5.82973568     8.50721739    -7.81637965     0.07983924    -0.43310446    -0.60718949
O      -9.70295428     8.45576532    -4.07822898    -0.54939642    -0.25790008    -0.25626395
O      -6.03634169     0.52962548    -8.05834098     0.46399767     0.31996540    -1.05439071
