# total energy = -630.74225882 eV

CRYSTAL
PRIMVEC
        0.00279571     0.02951795    -7.98606283
       -7.83802570     0.01298533    -3.99532603
       -3.92160916     8.71933433     0.00634407
PRIMCOORD
56 1
Li     -4.07458371     2.32348092    -1.84027993     0.45741901     0.34698681    -0.00623825
Li     -3.90170203     2.21735281    -5.91880849    -0.05985522    -0.14358783    -0.04676263
Li     -7.87717379     2.43579466    -9.80596165     0.25486009    -0.21538354    -0.52290653
Li     -7.78342029     2.28445245    -5.96378972     0.05211419    -0.08475338     0.39161010
Li     -3.95789678     6.47673986    -1.96325933     0.21589841     0.02759451    -0.38343218
Li     -3.89313747     6.55479783    -6.00847900    -0.48506053    -0.25990461     0.60733569
Li     -7.88285720     6.71844746    -9.78380081    -0.29444969    -0.59869207    -0.40604652
Li     -7.85396931     6.36715279    -5.89941798    -0.01814777     0.51398411    -0.55907251
Ti     -2.01639342     2.32182199    -3.83331843     0.59114626     0.31350379    -0.53788102
Ti     -5.80292597     6.73589426    -8.03364378    -0.24445860     0.36644084     0.86905935
Ti     -7.55654635     4.43127542    -7.71874444    -0.55535980    -0.18995370    -0.51576545
Ti     -7.81120364     4.41802056    -3.70723301     0.60372671     1.06988454     0.60751533
Ti     -3.78115415     4.39066840    -7.68263163     0.12397232     0.39622386    -1.93205524
Ti     -4.08642902     4.44309528    -3.76099627     0.69453180    -0.34442976     1.04240361
Ti     -2.31196343     0.01324464    -2.19186375     2.29497329    -0.22280407     0.55714321
Ni     -5.87621726     2.09670475    -7.91193290     0.63466145     0.48623918    -0.44121885
Ni     -5.85624733     2.23844984    -4.03107262    -0.56324155     0.06607169    -0.23623078
Ni     -9.81201498     6.31935410    -7.99882386     0.18830553    -0.44672299    -0.01697160
Ni     -9.81852291     6.51197768    -4.09392717     0.55674435     0.57145391    -0.42409279
Ni     -1.86008541     2.18665716    -7.86328898    -0.29895444     0.20025750    -1.18027798
Ni     -5.98468095     6.58846178    -4.04996606     0.52563621     0.64427826    -0.25763838
Ni     -1.96909434     0.11057158    -5.96503319    -0.64412838     0.08814437    -0.36011992
Mo    -10.01211301     8.68499787   -10.23869157     0.20996936     0.75067927    -1.63769186
Mo     -9.77785872     8.73635685    -6.42875351     0.63123713     0.11685755    -0.68269433
O      -1.95524862     1.89566756    -1.95920692     0.03839256     1.11030479     0.27221199
O      -1.94025855     2.00458863    -6.02087580    -0.14891337    -0.99855568     0.59421595
O      -6.03804255     6.85495146    -2.05939621     1.31471764    -1.18559035    -0.27577332
O      -5.86720234     7.02378464    -6.02866544     0.15974419    -0.72084148     0.84764420
O      -5.85971804     1.82620048    -9.81692213    -0.09635677    -0.08483035     0.68782400
O      -5.82562528     1.95307291    -6.09092651    -0.10844743     0.40803790     0.90036349
O      -9.74928453     6.76946621   -10.21520749    -0.73892024     0.06287192     0.58072027
O      -9.86764485     6.76412241    -6.05393386     0.17736073    -0.61666061     1.25488540
O      -3.91787572     2.38181455    -3.88433802     0.02211447     0.27196966    -0.54620703
O      -3.99878358     2.52062322    -7.86744004     0.13257987    -1.23988572    -0.44493075
O      -7.77120277     2.50020979    -3.97066416    -0.11196044    -1.71386711    -0.14267949
O      -7.73830005     2.45338421    -7.93074087    -0.74009407    -0.12321314     0.21681646
O      -3.98315032     6.32152397    -3.97891145    -0.15145944     0.41693374    -0.20296384
O      -3.89339919     6.46317126    -7.95394863     0.67778588    -0.22095593    -0.62895843
O      -7.89789780     6.40570972    -4.09847549     0.05918360    -1.10461359     0.94405152
O      -7.72077523     6.37644938    -7.84377140    -1.16791458    -0.43334362    -0.97367053
O      -3.94771822     4.40579207    -1.98506335    -0.10545545     0.09099513    -0.27871261
O      -3.97397381     4.54681000    -5.99129537     0.15559418    -0.19653296     1.61802276
O      -7.84197534     4.31332469    -9.92664903     0.24999105     0.80242098     0.42632820
O      -7.61901367     4.37081614    -5.96932206    -0.64276841    -0.07407649    -0.19810405
O      -7.94115339     8.62155883   -10.05780427    -2.27287865     0.88728946    -0.10599957
O      -8.04326462     8.65806589    -5.94902606     1.74568550     0.62453982    -0.11078879
O      -7.58558004     0.07390084    -6.20548507    -1.80020525    -0.16699161     0.57290549
O      -7.81946118     0.09081529    -9.87157499     0.46766014    -0.61777977    -0.76132825
O      -2.01453143     4.25409744    -3.99391295     0.45843997     0.60323492     0.11577780
O      -9.65159967     4.17240215   -11.95269567    -2.35820562     0.17685578    -0.39181919
O      -5.92396217     4.12317618    -4.01849542     0.66197842    -0.03734460     0.01205320
O      -5.75243606     4.75684863    -8.03597234     0.24047759    -0.37538325    -0.03337839
O      -1.96747095     0.36735207    -4.00385825    -0.06085558     0.31374219    -0.60386406
O      -5.83171341     8.61795679    -8.17524841     0.12044399     0.69591857     0.86395558
O      -5.86973749     0.34271357    -4.10180052    -0.71221851    -0.28892231     2.01028781
O      -9.65790786     8.14502242    -8.21376038    -0.38966317     0.17113136    -0.15726956
