# total energy = -630.44555312 eV

CRYSTAL
PRIMVEC
        0.00285542     0.02004370    -7.95977623
       -7.82940539     0.00763210    -3.98158109
       -3.91729101     8.74642787     0.01461334
PRIMCOORD
56 1
Li     -3.85887385     2.36613404    -1.88948122    -0.19392122    -0.39449602    -0.02362662
Li     -3.90212169     1.94858557    -5.98103433    -0.31857827    -0.01382850    -0.22870571
Li     -7.78817970     2.12484674    -9.97404688    -0.21042315    -0.09536563    -0.07848733
Li     -7.93728747     2.36844448    -5.81966801     1.16351528    -0.06039270    -0.70225666
Li     -4.04294442     6.46135982    -1.90821584     0.70491843    -0.08837276     0.00661706
Li     -3.79714016     6.67355141    -5.99964647    -1.13891517    -0.63593371     0.55390895
Li     -7.84012732     6.80927916   -10.03523663    -0.20870444    -0.50915835     0.27867234
Li     -7.75049955     6.30574983    -5.94382971    -0.54691201     0.77673948     0.78097894
Ti     -2.02099205     2.31600181    -4.11529246     0.94099684    -0.66957783    -0.19658876
Ti     -5.98574088     6.74791150    -7.99462548     2.39192370     0.19036772     0.68030681
Ti     -7.77906127     4.43635186    -7.77381444    -0.06244063    -1.31525648    -0.76329627
Ti     -7.76249637     4.33437176    -3.67062582    -1.43799709     0.39106047     0.41305799
Ti     -3.86410323     4.32041928    -7.64812351    -0.59109592    -0.01486765     1.18346383
Ti     -3.94506924     4.41786978    -3.72853341    -0.80220999     0.85342226    -0.25611259
Ti     -1.93234659     0.01192637    -2.27962568    -0.71303331     0.20170026     0.48081280
Ni     -5.94979489     2.27570959    -7.94895423     1.07506509     0.78137399    -0.03957479
Ni     -5.89338660     2.29032549    -4.02710029     0.74358074    -0.39731608    -0.59877462
Ni     -9.87112004     6.63063021    -7.91986332    -0.02849336    -0.08257283     1.19712453
Ni     -9.81565556     6.30258223    -3.85178679    -0.06657085    -0.10299551    -0.58661927
Ni     -1.95414384     2.17415526    -8.02968456     0.37770766     0.17822561     0.97003012
Ni     -5.88075888     6.54639330    -3.96730108    -1.09120870    -0.23565414    -0.54913674
Ni     -5.84260998     8.68415811    -5.92706203    -0.77781943    -0.46125033    -0.77314089
Mo     -5.94365841     0.02668221   -10.22508821     1.72412065    -0.17030961     0.13818103
Mo     -9.81354920     8.68788535    -6.24702532     1.03156829    -0.60850591     0.81783543
O      -1.84429003     1.97588923    -2.02280627    -1.43631239    -0.86861796    -0.54277155
O      -1.96300324     1.71670295    -6.01406644    -0.09090291     1.91748646     0.07034703
O      -5.94435710     6.72055892    -2.00764896     0.67769655     1.37900500    -0.11078731
O      -5.92771412     6.88386320    -5.93637247     0.59135745    -0.92255358     0.70065717
O      -5.79580779     1.94783664    -9.98084825    -0.64070815     1.01442374     0.21159513
O      -5.85022719     2.02751494    -5.94227390    -0.41279632    -0.17542667    -0.18818078
O      -9.78725014     6.83657785    -9.75975383     0.26524251     1.30404326    -1.07935249
O      -9.84618709     6.81753191    -5.93855792    -0.34143527    -0.40712658    -0.21447483
O      -3.96106738     2.41771095    -4.01576559     0.37479103     0.36740517     0.30031952
O      -3.86220221     2.33507663    -7.91699487    -0.23813269     0.95592274    -0.15268752
O      -7.77551503     2.33057504    -3.99939446    -0.89474216     0.93418068     0.84893216
O      -7.91928261     2.37458659    -8.08364150     0.46540660     1.17519474     0.57990227
O      -4.01672142     6.40197953    -3.95143883     1.24170211    -0.22394605     0.04635483
O      -3.98044496     6.30361473    -7.88128564     0.09523742     0.09749126    -0.26796008
O      -7.92469769     6.29558375    -3.90707523     0.30117987     0.13099011    -0.85466594
O      -7.79411051     6.52759210    -7.96544591    -1.90184761    -1.54521135     0.57712846
O      -3.76164598     4.54505817    -1.95240216    -0.20401927    -0.91098772    -0.93110621
O      -3.69512263     4.50609492    -5.88352092    -0.81410283    -0.14113740    -0.66216414
O      -7.87515927     4.61790747    -9.90352050     0.34696608    -0.79519421     0.67462206
O      -7.70869793     4.41584480    -6.01560985    -1.01661752     0.16351185    -0.32764469
O      -3.93420228     0.09001667    -2.15488370     0.21574590    -0.88940550     0.47815878
O      -8.03269158     8.64920821    -5.94373235     0.19331211     0.50363412     0.07040453
O      -7.73082588     0.09791378    -6.03521475    -1.24131783    -0.69369316     0.17773475
O      -7.70627996     0.08440471    -9.88640893     0.70106676    -0.64389887    -0.54557981
O      -1.97939620     4.16346026    -4.07871097     0.34821059     0.18590764     0.60004351
O      -1.94554454     4.30406056    -7.84219231     0.68919686    -0.25276086    -1.05642142
O      -5.94200276     4.38081339    -4.04575176     2.20416729    -0.55045586     0.26432242
O      -5.86162303     4.22356726    -7.95793753    -0.15780448     0.18422466    -0.26528402
O      -1.88077852     0.15443313    -4.08757068    -0.24529584     0.35129696     0.74928696
O      -5.87515439     8.52002397    -7.86500672     0.10775615     0.94664116    -0.50559219
O      -5.84950121     0.28758940    -4.04799162    -0.71308095     0.18720897     0.26983396
O      -5.79250235     0.50674952    -7.97150395    -0.36005239    -0.71413853    -1.62369239
