# total energy = -630.97880001 eV

CRYSTAL
PRIMVEC
        0.00279571     0.02951795    -7.98606283
       -7.83802570     0.01298533    -3.99532603
       -3.92160916     8.71933433     0.00634407
PRIMCOORD
56 1
Li     -3.91214005     2.16556491    -2.02390131    -0.40522091     0.19056904     0.52174135
Li     -3.98508744     2.42313412    -5.95977226    -0.23555219    -0.06548784     0.53113006
Li     -7.75896265     2.16057836   -10.02567974    -0.33031748    -0.21474825     0.72580744
Li     -7.82880034     2.35364519    -5.77446385    -0.18352352    -0.06525899    -0.40230902
Li     -3.86064454     6.48668090    -2.01101246     0.36235427     0.12112562     0.23384477
Li     -4.08674796     6.48035393    -6.01024101     0.54441947     0.17037746     0.42242370
Li     -7.85317210     6.51954761    -9.91135159    -0.20188097     0.03282099    -0.36704430
Li     -7.86183106     6.40565203    -5.89035553     0.26083908     0.65018648     0.24279361
Ti     -1.92301093     2.19876505    -3.98963565    -0.60353677     1.80920101    -0.22595201
Ti     -5.91840253     6.74559586    -8.04123556     0.26325390     0.19626309     0.15446599
Ti     -7.72546107     4.44478093    -7.69223884    -0.69090464    -0.59083533     0.12550142
Ti     -7.93911822     4.27905072    -3.63273035     1.05726578     1.03958528     0.37409059
Ti     -3.91945701     4.40253367    -7.66987373     0.19484619     0.38056308    -0.12608761
Ti     -4.08902362     4.45381301    -3.72598360     0.00468134    -1.01265364     0.86854671
Ti     -1.71657499     0.06824594    -2.11579342     0.13500126    -0.63593803     0.66742448
Ni     -5.86805364     2.17952631    -8.00118967    -0.03161285    -0.18172754     0.29554978
Ni     -5.91300914     2.24431860    -3.88539500    -0.26785059     0.91804213    -0.83896903
Ni     -9.88575678     6.36222804    -8.02264739     1.14679533     0.40255240    -0.16035242
Ni     -9.75979873     6.48831741    -3.98160782    -0.33435081     0.18315823     0.38669548
Ni     -2.03852773     2.17662184    -7.86478726    -0.01959581    -0.07594565    -0.87490097
Ni     -5.89843167     6.67311114    -4.04175596    -0.49769770    -0.03986258     0.35310468
Ni     -2.01024409     0.09053336    -6.00829645     0.08132401     0.62604819     0.07419080
Mo     -9.87614012     8.56524766   -10.44110943     1.52330039    -0.01949907     0.63828493
Mo     -5.71346720     0.10468992    -6.39402511    -0.59260748     0.03391640     1.49741114
O      -1.95673726     1.93413657    -1.94523295    -0.22568672     0.73032833    -0.49918383
O      -2.13418557     1.94448506    -5.88670538     1.21004906    -0.19410811    -0.89650761
O      -5.70506968     6.85327579    -1.94856015    -1.49256038    -0.54634084    -1.01394033
O      -5.95237322     7.00698544    -6.01255460     0.15490457    -0.54423792     0.44226639
O      -5.91660752     1.76281621    -9.88317802     0.62748548     1.22223398     0.30805652
O      -5.99084892     2.01649826    -6.04998988     0.94336014    -0.51853866    -0.71215641
O      -9.90328023     6.68855974   -10.06087160    -0.31773168    -0.34621562    -0.43012401
O      -9.65165497     6.88946800    -5.78839927    -0.84981917     0.81355332    -0.92803813
O      -3.96728600     2.49217124    -3.96431792     0.75987894    -0.70741532    -0.02687668
O      -3.99752970     2.45347588    -7.92001496    -0.19891070    -0.00481134    -0.05942216
O      -7.96470875     2.34786699    -3.90030932     0.91381982    -0.13151302     0.06601503
O      -7.78181337     2.42046873    -7.98262485    -0.64638341     0.54379350     0.30918305
O      -3.97424829     6.38366768    -4.04680473    -0.10066384    -0.33674472     0.58944596
O      -3.84457008     6.37974189    -8.08178233    -0.19705867    -0.39284381     1.01208995
O      -7.90361113     6.25728908    -3.84996778     0.75413539     0.63727466    -0.42615606
O      -7.82951212     6.40850067    -8.01634419    -0.12664623    -0.26779877     0.32728669
O      -4.07053172     4.24098529    -1.95883243     0.46329046     0.81791699    -0.42791087
O      -3.97594441     4.47013499    -5.86761290    -0.08879625    -0.36756978    -1.91755249
O      -7.94841278     4.42684482    -9.85862297     0.48139672    -0.12594959    -0.18325483
O      -7.75069613     4.64113781    -5.91956223    -0.34864056    -1.64976500    -1.06365519
O      -8.10926492     8.55167346    -9.93060061     0.00525612     0.57411331    -0.95685857
O      -3.95793042     0.19294594    -6.30231526    -0.05062969    -0.09071187     0.64885382
O      -7.77893000     0.03401870    -6.17722336     1.15192666     0.15072753     0.15429043
O      -7.70856092     0.05819529   -10.06886088    -1.25194803    -0.48797634     0.10078873
O      -1.96196692     4.30373639    -3.95658389    -0.15421330     0.44159083     0.26201250
O      -1.96558455     4.12330444    -7.93227349    -1.36586690    -0.10307823    -0.28999846
O      -5.98366772     4.13727601    -3.96730626    -0.03584073    -0.28362452     0.19111581
O      -5.85366909     4.74042163    -7.97980458     0.13141135     0.24591423     0.10160121
O      -1.98681883     0.31856430    -3.99537904    -0.41359373    -0.39247344    -0.31217115
O      -5.90025835     8.73820347    -8.13176679     0.04487713    -0.52108691     0.89711878
O      -5.88593876     0.43931311    -4.21132934     0.22680986    -0.71658800     0.04302044
O      -9.78265608     8.23361685    -8.06774830    -0.83058551    -0.78790888    -0.36717123
