# total energy = -630.74265891 eV

CRYSTAL
PRIMVEC
        0.00279571     0.02951795    -7.98606283
       -7.83802570     0.01298533    -3.99532603
       -3.92160916     8.71933433     0.00634407
PRIMCOORD
56 1
Li     -3.95379053     2.40510295    -1.86969453    -0.06366342     0.16408708    -0.39886391
Li     -4.06685348     2.29650550    -5.93952160    -0.03947171     0.27611423    -0.08145144
Li     -7.88468140     2.02348111    -9.83373852     0.01319307     0.29301489    -0.51769162
Li     -7.92445357     2.40106446    -5.80982483     0.37965302    -0.02937259    -0.04052411
Li     -3.87758493     6.77125912    -2.29232644     0.09785915    -0.38461109     0.80817518
Li     -3.84920641     6.52582253    -6.04968381    -0.56679344     0.22348241     0.56132730
Li     -7.83285077     6.64342415   -10.18618385    -0.10760737     0.08359477     0.68732159
Li     -7.70896980     6.47421205    -5.96075191    -0.30396109    -0.08030118     0.22861840
Ti     -2.05847048     2.20467863    -4.10374205    -0.43966231    -0.56779002     0.30392860
Ti     -5.81283778     6.63280788    -8.19021499    -0.83424693    -1.67113312     1.21919572
Ti     -7.81880120     4.39046544    -7.68011545     0.52987805     0.47839917    -0.92091945
Ti     -8.01816703     4.36030776    -3.61756639     1.81964416    -1.32758166    -1.61826514
Ti     -3.83870447     4.43811884    -7.74920945    -0.83007790    -0.29081231     0.01050390
Ti     -3.98178444     4.49466257    -3.71811141    -1.19453059    -1.36281158     0.22342964
Ti     -1.80234873     0.12688464    -1.91646845     0.44845880     1.34668092    -1.75224732
Ni     -5.93309061     2.06408182    -8.00127502     0.00337398     0.36449609     1.30526887
Ni     -5.96533096     2.18550982    -3.80168819     0.07925700     0.25026471    -1.01055195
Ni     -9.72402772     6.44292322    -8.07085873    -0.03474686     0.03419945    -0.35322072
Ni     -9.81493164     6.59065664    -3.99897712     0.30493571     0.22676859    -0.04747038
Ni     -2.12176638     2.08344792    -7.95501539     0.83245879     0.60440750    -0.38926341
Ni     -5.88779307     6.59675421    -4.06146523     0.29993028     0.32811666    -0.21680844
Ni     -5.90637735     8.73695707    -5.96431127     0.10119162     0.97285355     0.42636569
Mo     -5.85689974     0.09387830   -10.34341196    -0.04542100    -0.32492355     0.25297363
Mo     -9.66049480     8.71571069    -6.30821357     0.90628067     0.36361582    -0.96996317
O      -2.01565743     2.05259466    -2.03503013     0.00967736    -1.17414435     0.90659375
O      -2.08541109     1.89317630    -6.06564751     0.34272989     0.03104275     0.96915321
O      -5.84726793     6.90977938    -2.09675109    -0.29908854    -0.79989980     0.00136026
O      -5.85523869     6.95576232    -5.89299584    -0.01592860    -0.65278608    -0.41471370
O      -5.90915167     2.00406032    -9.79676541     0.15661945    -0.82570654    -1.00121474
O      -5.96359741     1.85652356    -6.15274128    -0.23889746     0.28547892     0.67246805
O      -9.82949148     6.85093787   -10.08816772     0.51231268    -0.71378743    -0.85779312
O      -9.75433344     6.83138536    -5.84595293    -0.06562336    -0.01178371    -0.31231577
O      -3.97530341     2.45640025    -3.93470384     0.51797414    -0.08551167    -0.16441804
O      -4.12810056     2.44078320    -7.97487670     0.75518309    -0.16449792     0.23708667
O      -7.89073374     2.33656303    -3.80473989     0.11446774     0.04687358    -0.45094667
O      -7.89358940     2.46754099    -7.89663863     0.00439777    -0.40579559    -0.73469464
O      -3.95489501     6.34122959    -4.13094031     0.22154094     0.43508621     0.57058257
O      -3.92980872     6.46692838    -8.00915423     0.84492332    -0.19209125     0.04927630
O      -7.74934752     6.21938954    -4.05484009    -0.68633892     0.73681621     0.32062390
O      -7.74067442     6.41234216    -7.95530809    -0.74387750    -0.58130512    -0.23987153
O      -4.03417332     4.43580056    -1.93583912     0.14681346     0.17209694    -0.79104528
O      -3.98895618     4.37639531    -5.99943322     0.17984783     0.09954921    -0.05932745
O      -7.89529111     4.43913382    -9.89888158     0.11615476     0.37426016     1.61458391
O      -7.88812079     4.33352335    -5.95347361     0.07537533     0.38311282     0.13593565
O      -7.93247201     8.64887190    -2.24492453    -0.68933126     0.61706215     0.46116813
O      -3.96084542     0.10498805    -5.95273827    -1.08623977    -0.44192039    -0.64227869
O     -11.67155260     8.63611183    -6.03408011    -0.62010862     0.78995640    -0.39361560
O      -7.70435746     0.06869905   -10.03961826     0.37636052    -0.04415849    -0.06740167
O      -2.03759990     4.37417714    -4.02353640     0.67858127     0.32183169     0.18989650
O      -1.99122817     4.02290230    -7.99130487    -0.60347035    -0.22547807    -0.11149665
O      -5.96524899     3.96950087    -3.97813803    -0.03033642     1.05142934     0.17526761
O      -5.80982394     4.70660501    -7.91394368    -1.17324416     0.90346361    -0.50941978
O      -2.00990343     0.35124692    -3.98979177     0.43452437     0.14723111     0.30016162
O      -6.03231845     8.67785460    -8.05357407     0.46517128    -0.17332845    -0.00124545
O      -5.91732708     0.24644598    -4.20548016    -0.23947730     0.52119623     1.34046659
O      -9.60014199     8.30755374    -8.15266216    -0.62735838    -0.49003337     1.27608719
