# total energy = -630.65686237 eV

CRYSTAL
PRIMVEC
        0.00285542     0.02004370    -7.95977623
       -7.82940539     0.00763210    -3.98158109
       -3.91729101     8.74642787     0.01461334
PRIMCOORD
56 1
Li     -3.86338580     2.08068373    -1.69516658    -0.17466770     0.34274891    -0.84913144
Li     -3.96517217     2.09807257    -5.82393026     0.02190832    -0.12700245    -0.36304024
Li     -7.78490685     2.34854372    -9.90893353    -0.48901979     0.35438431    -0.49525912
Li     -7.86089899     2.35723440    -5.91289886     0.30372879    -0.24997818     0.17272129
Li     -3.94100149     6.39622925    -1.96186847     0.79627283    -0.07151240    -0.23492708
Li     -3.75912400     6.39458146    -5.88684938    -0.40969549     0.39607554     0.11217055
Li     -7.90546453     6.32881133    -9.96394649     0.27393046     0.62831521     0.26709191
Li     -7.80266628     6.43860262    -5.82594517     0.26884633     0.30186858    -0.57174807
Ti     -1.97871113     2.17969696    -4.04015947    -0.19006716     0.75327054     0.12513002
Ti     -5.82084352     6.71030278    -8.05944867    -0.37618332     0.26526906     0.94296837
Ti     -7.87012054     4.32994066    -7.74359696    -0.41810173     0.87246552     0.53216199
Ti     -7.98045297     4.44919917    -3.76417144     2.47027560    -0.92324010    -1.05955424
Ti     -3.83730793     4.32816060    -7.69443963    -0.73912128     2.51431314     0.26192234
Ti     -4.10933683     4.34100971    -3.78312723     1.47478327     0.05708308    -0.29082818
Ti     -6.15132652     8.73375485    -2.06947191     0.02013160     0.01400030    -0.13695522
Ni     -5.78246138     2.46128096    -8.00834886    -0.79855424    -0.46687832     0.25474875
Ni     -5.92921444     2.06433824    -4.00068094     0.14138298     0.30301350     1.65267721
Ni     -9.76138627     6.52047320    -7.81268127     0.72306376     0.02124404    -0.53520969
Ni     -9.75582400     6.44308144    -4.00125107    -0.45984096     1.98123255    -0.92180249
Ni     -1.87443996     2.24086600    -7.85096941    -0.31725153    -0.96973961    -0.26391414
Ni     -5.79642147     6.61359121    -4.02346435    -0.10584771    -0.19760502     0.84187677
Ni     -5.84923467     8.65959639    -5.93817100    -1.34607191     0.96328801     0.46111876
Mo     -6.09593701     0.05646869   -10.19177661     1.22575337     0.51241450    -1.27657188
Mo     -9.74850948     8.73701724    -6.35041794     0.73240503    -0.14626215    -0.16900798
O      -1.91536005     1.84798125    -1.90514938     0.15887187     0.53148832     0.27352798
O      -2.05899456     1.90016418    -5.96249641     1.08419210    -1.02242398    -0.49595921
O      -5.77639469     6.75100513    -2.01774741    -0.85154992     0.73032677    -0.15304141
O      -5.78080446     6.81775332    -5.85977454    -0.22486083     0.52632332    -0.77990449
O      -5.96617351     2.00574186   -10.03029280     0.61908784    -0.05802682    -1.02002711
O      -5.87300304     1.91660032    -5.76354097     0.26635841     0.01627596    -1.62470441
O      -9.68540375     7.08619755    -9.65112313    -0.26260525    -1.08534852     0.37558408
O      -9.70934774     6.80359701    -6.01534011    -0.20969737    -0.40348111     0.42295357
O      -3.86853007     2.43219568    -3.92636235    -1.55509879    -1.18731463    -0.31876304
O      -3.81426761     2.52804863    -7.77341692    -0.07652268    -2.48041422    -0.80788017
O      -7.82548035     2.47758015    -3.97027932     0.08068621    -0.20326561     0.23688746
O      -7.87312793     2.38786030    -8.06074046     1.05324014     0.70327188     0.96045139
O      -3.71743090     6.30191825    -3.94073490    -0.91142110     0.67234638    -0.02948292
O      -3.92262560     6.35183817    -7.99496359    -0.01346392     0.41805216     0.25136134
O      -7.85819416     6.38802400    -3.99107447     0.13044720     0.03061401     0.64430341
O      -7.74871104     6.30726496    -8.00567488    -0.30920484    -0.36338312     0.58135153
O      -3.80357954     4.37940089    -2.07592020    -0.34639280     0.05709220     1.97059371
O      -3.73424712     4.57892701    -5.95014717     0.01673007    -0.74610101    -0.00855331
O      -7.90443714     4.48457438    -9.98402678     0.15988454    -0.59662376     1.55394290
O      -7.84333083     4.43884809    -5.96893670     0.06426511    -0.42742041    -1.08282638
O      -4.00025466     0.11714361    -2.20208977     0.07758352     0.01693306     0.81148868
O      -7.95565353     8.63122005    -5.88744515     0.41484334     0.57391749    -0.68058276
O     -11.46576656     8.67085333    -5.99087068    -1.19910049     0.00360441    -0.14020208
O      -3.93060490     8.64319823    -6.02349625    -0.00739164     0.69935524    -0.25819403
O      -2.04231222     4.09920743    -3.98667067     2.21101311    -0.08647866    -0.13593874
O      -9.75939556     4.63831210    -4.09512122    -1.41568201    -0.49069573    -0.13918260
O      -5.89038265     4.67737574    -4.01873861    -1.61628332     0.14823646    -0.29017838
O      -5.79474884     4.32827248    -7.89239007    -0.67398256     0.20919000    -0.41157497
O      -1.96692531     0.23767581    -3.97509142     0.53669777    -1.14946594     0.07467463
O      -6.08695814     8.54473479    -7.95453337     0.85378480    -1.19768126    -0.70977117
O      -9.71447142     8.46842060    -4.04344247    -0.98408953    -0.20521430     1.71560284
O      -5.78670058     0.64551788    -8.16155507     0.08474874    -0.69034038     0.94335689
