# total energy = -630.39771408 eV

CRYSTAL
PRIMVEC
        0.00279571     0.02951795    -7.98606283
       -7.83802570     0.01298533    -3.99532603
       -3.92160916     8.71933433     0.00634407
PRIMCOORD
56 1
Li     -4.01887417     2.24760870    -1.97104213     0.36831455     0.08941325     0.06547070
Li     -4.00215529     2.19620496    -6.01314540     0.24468713    -0.17139336     0.43759440
Li     -7.85415413     2.03800523    -9.80239822     0.14370014     0.06278841    -1.12398717
Li     -7.70446433     2.22048156    -5.84546914    -0.65809636     0.31079226    -0.64152961
Li     -3.73353138     6.22130124    -1.94561030    -0.56631906     0.71731795    -0.02971154
Li     -3.86130327     6.36452367    -5.98151923     0.10930645     0.43497785     0.26814119
Li     -7.92221176     6.49909589   -10.04626961     0.13787235     0.11625461     0.33971960
Li     -8.01827873     6.34949847    -5.96642787     1.02927938    -0.15019343     0.44131742
Ti     -2.01338906     2.18990923    -4.10974693    -0.92398857    -0.07047970     1.13662330
Ti     -5.89510204     6.60475957    -8.05275600    -0.37320112    -0.49069251     0.50277852
Ti     -7.88167619     4.36314648    -7.78758191    -0.26516708     0.22890313     1.70761268
Ti     -7.78825032     4.40714711    -3.66828576    -0.07120561    -0.93524630    -0.04693841
Ti     -3.88994086     4.24634831    -7.70957443     0.51892173     0.84628156     0.23451864
Ti     -4.03922339     4.45263689    -3.78036585     0.31389458    -0.64180380     0.46936753
Ti     -5.68167805     8.70196446    -2.00964567     0.04661972     0.41991909    -1.09844863
Ni     -5.89175254     2.37973280    -7.94617279    -0.39952495     1.37384397    -0.67971837
Ni     -5.93102290     2.06226745    -3.92151612    -0.39506846     0.78437085    -0.65277191
Ni     -9.81024864     6.68168634    -7.87042735    -0.17703525     0.07383839    -1.05516557
Ni     -9.88245586     6.36289860    -4.04169452     0.48096546     0.20216395     0.16364771
Ni     -1.92074266     2.22061931    -7.94940720     0.00804633    -0.06653662    -0.13849770
Ni     -5.92770366     6.71931471    -4.15044093     0.75821673    -0.36706061     1.44807971
Ni     -5.87762677     8.62466864    -6.06187925     0.51658310     0.92080559     0.27733776
Mo     -5.88066388     0.09082106   -10.28772903     0.03323692    -0.04797577    -0.47769239
Mo     -9.75822023     8.73310776    -6.29801504     1.49656131    -1.27348404     2.41884476
O      -2.08354117     1.81161282    -2.08664451     0.67440432     0.92438578     0.17030902
O      -1.95752632     1.70977743    -6.01675520    -0.47681357     1.10351137    -0.28155132
O      -5.89409670     6.77786115    -2.14340796    -0.34593497     0.04035576     1.12892541
O      -5.78652053     6.85608904    -6.01972226    -0.60592535    -0.84443314    -0.46802618
O      -5.94260113     2.17017348   -10.01644307    -0.27193995    -1.36768195    -0.13244749
O      -5.85980402     1.97911960    -5.92837318    -0.02516131    -0.11738023     0.89791042
O      -9.73219197     6.88240654    -9.73069118    -0.39119236     1.01371128    -0.50911701
O      -9.75323153     6.75537861    -6.03750440    -1.47714455     0.66464023     0.30104415
O      -4.08827513     2.41083380    -3.95684635     1.01520667     0.34552178    -0.50355219
O      -3.86100949     2.37199159    -7.97557671     0.03816618     0.09444894     0.24687205
O      -7.86771705     2.47174041    -4.06065307     0.22745059    -0.26956389     1.18467224
O      -7.99108619     2.38071624    -8.02604635     1.42948605     0.19130182     0.71645810
O      -3.79334496     6.41755015    -4.04304659    -0.06812173    -0.35389777     0.86341834
O      -4.01859479     6.21380561    -7.94187640     0.39769220     1.11991814    -0.84060376
O      -7.95540853     6.27622597    -4.05470790    -0.35591749     0.89530958     0.30129615
O      -7.96201863     6.46921740    -7.85195587     1.89845546    -1.47300597    -0.77752770
O      -3.79810360     4.44167655    -1.99406363    -0.46251354    -0.61242893    -0.81744542
O      -3.90813332     4.47020956    -5.94604407     0.50543501    -0.91929496    -0.21512393
O      -7.91660681     4.44248699    -9.86812200     0.31115735     0.17420690    -0.55050796
O      -7.92183502     4.29488369    -5.98797010     0.16472867     0.33406609    -1.80635580
O      -4.08505634     0.26622555    -2.07346461    -0.46425579    -1.24984168     0.02113267
O      -7.98084345     8.73763751    -5.90742583    -0.60862817    -0.04937570    -0.71309608
O      -7.70522702     0.15782279    -5.95106156    -0.70914521    -0.70495227     0.01900965
O      -7.72329027     0.08421821   -10.24167509    -0.53916439     0.17919732     1.23303101
O      -2.00398189     4.04940421    -3.99726726    -0.42366769    -0.13491043    -0.49137932
O      -9.75322518     4.48047494    -4.00146637    -0.57763834    -0.01334708     0.12744695
O      -5.87603035     4.81169287    -4.04977700    -0.87544046     0.08361869    -0.08842303
O      -5.83897789     4.40289458    -7.90494923    -1.20862135    -0.42110399    -0.61456035
O      -5.76879329     8.70443128    -3.98293468    -0.42750788    -0.25415070    -0.06480450
O      -5.97322222     8.44302308    -8.07454716     0.24385737    -0.07393680    -0.01099168
O      -9.93076663     8.29113967    -4.05764728     0.92014055    -0.14271447     0.15515985
O      -5.93585629     0.58920778    -7.97224745     0.04639229    -0.03134215    -2.46436821
