# total energy = -630.72133833 eV

CRYSTAL
PRIMVEC
        0.00285542     0.02004370    -7.95977623
       -7.82940539     0.00763210    -3.98158109
       -3.91729101     8.74642787     0.01461334
PRIMCOORD
56 1
Li     -3.98859356     2.25640211    -1.93259303     0.13423607     0.10869158     0.34219430
Li     -4.01398521     2.36245161    -5.77143315     0.45122422    -0.12325552    -1.10069779
Li     -7.66768887     2.51128141    -9.85764504    -0.23964641    -0.18329835    -1.01012034
Li     -7.83371737     2.02176458    -5.85465985     0.19106629     0.24189547    -0.06103441
Li     -3.91790268     6.30451796    -1.81200373     0.15390706     0.26991968    -0.99124204
Li     -3.93347937     6.27709400    -5.86567819     0.22013413     0.37341663     0.26002328
Li     -7.79167320     6.23569088    -9.89054717    -0.27042808     0.54288245    -0.11947389
Li     -7.73601622     6.77136311    -5.98208492    -0.03141809    -0.00858311     0.58367437
Ti     -1.88413649     2.21266642    -4.06829743    -1.07786878    -0.13660739     0.57469149
Ti     -5.83072667     6.68198216    -7.98054588     0.40200206     0.69807534     0.39465200
Ti     -7.79916902     4.35806400    -7.61955772    -0.14283002    -0.01655585    -1.45716665
Ti     -7.90828817     4.35186391    -3.77892122     0.73900372     0.44048042    -0.37305750
Ti     -3.81579165     4.40894752    -7.69366290     0.39739250    -2.75588575    -0.29501091
Ti     -4.08157774     4.40231949    -3.67277438     0.76450427    -0.48656062    -1.05637662
Ti     -6.26602398     8.74324006    -2.04116639    -0.04787900     0.72597061    -0.43355830
Ni     -5.83433239     2.37914429    -7.84703708     0.29015517    -0.37102017    -1.16333243
Ni     -5.85609747     2.01025087    -4.00766181    -0.61371594     0.53668254    -0.01839881
Ni     -9.72160738     6.62431055    -7.83587948    -0.74020963    -0.21695629     0.47803514
Ni     -9.75603293     6.56676087    -4.13366748     1.07954717    -1.63943249     1.92461258
Ni     -1.88092671     2.00109341    -7.94390566    -1.19733704     0.39798984     0.12618592
Ni     -5.85278530     6.71754527    -4.03322174    -0.01123273    -0.44222282     0.39831943
Ni     -2.01175375     0.07787345    -6.03744608    -0.45340948    -0.15715972     0.80100445
Mo    -10.08103993     8.76972851   -10.26200935     0.77361390     1.23449297     1.91770146
Mo     -9.78892730     8.67128466    -6.32488270     0.40087792     1.70063758    -0.66493131
O      -2.00385917     1.92527846    -1.92439657     0.59737948    -0.90671401    -0.56966486
O      -2.02498919     1.91454498    -5.95134647     0.27397384     0.12800060    -0.63935562
O      -5.87580677     6.80408694    -1.98275601    -0.01838436     0.36905454     0.52282383
O      -5.87007715     7.03052824    -6.00951493     0.62434435    -1.38788491    -0.45897566
O      -5.91206900     1.93589800   -10.12669645    -0.06582264     0.23661632     0.10930451
O      -5.81481816     1.90331561    -5.84746699    -0.07977263    -0.20178375     0.03643498
O      -9.73849920     7.05643150    -9.60485416    -0.23964547    -0.66160012    -0.93311382
O      -9.71337702     6.80249709    -5.93721736    -0.27648967    -0.58228501    -1.97806273
O      -3.93922398     2.46277041    -3.94849279     0.02658829    -0.55170246     0.32022733
O      -3.89988570     2.35556368    -7.85258571     0.31770996     1.24286550    -0.14896412
O      -7.86215073     2.38069025    -3.98546419     0.55324177     0.32459348     0.48260086
O      -7.85661516     2.38557643    -8.09526901     1.15849791     0.25703199     1.65371011
O      -3.80859381     6.29756140    -3.94048279     1.01944978     1.34184038     0.31377726
O      -3.85599691     6.31924192    -7.90429371    -1.07715055     1.20576483     0.10635818
O      -7.78033100     6.35440357    -4.06283513    -0.90003925    -0.03286193     0.38710477
O      -7.72894791     6.33780507    -7.86990937    -0.67208867    -0.54354540    -0.12460562
O      -3.85809683     4.37005509    -1.94675145     0.06589192    -0.03437370     0.92930370
O      -3.67797047     4.38709474    -5.92883866    -0.08199201     0.01076016     0.29465937
O      -7.73362442     4.39992189    -9.92526369    -0.23771319    -0.23064684    -0.76450060
O      -7.44460277     4.18581330    -5.95630738    -0.44654033     0.04621296     1.09002863
O      -4.10128682     0.23120528    -9.88249473     0.81507396    -0.84214321    -0.48386139
O      -7.86057760     8.73503452    -6.01556353    -1.62458110    -0.01406412    -0.49000290
O      -7.61928201     0.08540341    -5.89115983     0.71673096    -0.79032789    -0.52327156
O      -0.08725043     0.10372834    -6.15943990     0.42155733    -0.15080079    -0.06567799
O      -1.87178686     4.06316555    -3.76876999    -0.09575231     0.32530404    -0.47020332
O      -9.72885506     4.70595962    -4.13626575     0.43166064    -0.33805332     0.27080723
O      -5.82233654     4.86418582    -4.03086541    -1.32449008    -0.11104371     0.07833731
O      -5.70147812     4.34434940    -8.02149503    -1.32217012     0.25368066     0.53072273
O      -5.90551738     8.72813192    -4.03413004     0.06772710     0.72622799     1.40472886
O      -5.84967349     8.56920507    -8.03078401    -0.18113336    -0.64188175    -0.58990263
O      -9.73353710     8.34690762    -4.01883882     0.06139882     0.93355060    -0.49226459
O      -6.00891470     0.53603508    -8.11730316     0.28152572     0.02886967     1.03005995
