# total energy = -630.77263305 eV

CRYSTAL
PRIMVEC
        0.00279571     0.02951795    -7.98606283
       -7.83802570     0.01298533    -3.99532603
       -3.92160916     8.71933433     0.00634407
PRIMCOORD
56 1
Li     -3.93961761     2.40996097    -1.89880154     0.03853055     0.10752730    -0.08056872
Li     -3.97691630     2.25043571    -5.95927593     0.19228506    -0.00460033    -0.25264154
Li     -7.94356549     2.23411654    -9.99609189     0.65803516     0.06192764     0.16473998
Li     -7.88263413     2.36301761    -5.74523559     0.39630713    -0.00468219    -0.95471277
Li     -3.77235032     6.42523452    -2.18955479    -0.46164989     0.26728774     0.67846726
Li     -3.82830831     6.49522846    -5.97675821    -0.56635043     0.18467726     0.46695351
Li     -7.85345131     6.44031374    -9.91487513     0.20140130     0.24542405    -0.26046933
Li     -7.84608839     6.59782936    -5.84426445     0.01226525    -0.07282459    -0.33995200
Ti     -1.92367101     2.03099538    -4.01329031    -0.28160611    -1.27557004    -0.14645459
Ti     -5.79010222     6.58235119    -7.93190806    -0.84188606    -0.37375544    -0.21984872
Ti     -7.91534027     4.46562813    -7.71839453     1.05052582     0.02324348     0.18844237
Ti     -7.92902348     4.31445059    -3.65641522     0.22686757     1.69806155    -1.01560464
Ti     -3.82056637     4.38763366    -7.70817614    -0.30110112    -0.74755361    -1.06189151
Ti     -3.92578952     4.45729041    -3.89155524    -1.01377029    -1.60547277     1.38941060
Ti     -2.08892057     0.05205193    -1.94983471    -0.20306634    -2.02730911    -0.05440043
Ni     -5.90605817     2.26233225    -7.95174455    -0.93818610    -0.14457158     0.45990348
Ni     -5.77776778     2.33874893    -3.92953956    -1.17754259    -0.31792087    -0.51737474
Ni     -9.79193883     6.44961497    -8.13772396     0.39853783    -1.58855109     0.79094952
Ni     -9.83341086     6.52111100    -4.02847369     1.04017054     0.68687470     1.09413182
Ni     -1.91950114     2.02990424    -7.97995712    -0.43531454    -0.16204798    -0.54136654
Ni     -5.97080214     6.53848867    -3.98254014     0.69269013     0.28390091    -0.18454840
Ni     -2.10120480     0.11216383    -6.03625151     0.46010039    -2.35592191     0.35550756
Mo     -5.93762928     0.05697807   -10.30702755     0.40735019    -0.45788485     0.65632579
Mo     -5.90830802     0.09596799    -6.34822162    -0.19964564    -0.56548972     0.03059228
O      -1.92767482     1.91367626    -2.09043132    -0.14117025     1.19874523     0.98023072
O      -1.98944408     1.87030097    -6.12596361     0.07163536     1.09721922     1.39396417
O      -5.88855149     6.78234379    -1.93570491     0.40939761     0.44710512    -0.69132033
O      -5.91366936     6.94962731    -5.90084637    -0.18077456     0.26570260    -0.49815035
O      -5.97403958     1.93868389    -9.89219538     0.78447243    -0.05940677     0.82558219
O      -5.89394689     1.98264889    -6.00904610    -0.37120164     0.43734765    -0.17937360
O      -9.80154467     6.70066371   -10.11277205     0.36446624     1.02721530    -0.21040678
O      -9.74699524     6.86958964    -5.81180882    -0.58156576     0.45716316    -1.09548210
O      -3.83501946     2.41735790    -3.98266395     0.50702988    -0.20169121     0.02038582
O      -4.13782124     2.44797893    -7.94339755     0.85430848     0.05588229    -0.53743079
O      -7.73028332     2.43954632    -3.93200141     0.33075997    -1.10981971     0.31419171
O      -7.84278330     2.43933394    -7.94600595    -0.49535200     0.23941797    -0.46993102
O      -4.01010580     6.26974988    -4.09080719    -0.01270314     2.08748215    -0.20131830
O      -3.88537672     6.32972514    -7.84816831     0.74253985     0.71636850    -1.00416505
O      -7.83084788     6.44158897    -3.97377858    -0.71369403    -1.62654712     0.54672275
O      -7.74251342     6.41664726    -7.98009998    -1.08073528    -0.47672733     0.34238188
O      -3.82447799     4.51871176    -2.11912546    -0.01826178    -0.72115119     0.52641282
O      -3.79329569     4.31704287    -5.97813407     0.02268381     0.04557799     0.86380391
O      -7.76185318     4.43873332    -9.90148537    -0.33609224    -0.20303245     0.05088059
O      -7.85979315     4.40180978    -5.97350301     0.18302445     0.07215016     0.19836277
O      -3.96442007     0.08387590    -9.87788143    -0.83320367     0.04456245    -0.63987422
O      -4.04621149     0.20713663    -6.17344508    -0.53434739    -0.49904848     0.25166025
O      -7.76809875     0.07575432    -6.09390687     1.22900204     0.02041211     0.24445521
O     -11.61529899     8.72545871   -10.16830220    -0.35861612     0.00171983     0.57318277
O      -9.77955191     4.51991831    -8.02377878     0.17685862    -0.27444382    -0.39878823
O      -1.98176242     3.85605931    -8.04894393     0.75833021     0.68950219     0.25963689
O      -5.92948785     4.20121354    -3.94855746     0.47995763     0.33091019    -0.47495394
O      -5.77605190     4.69770945    -7.90091014    -0.79077990    -0.33636859    -0.17308917
O      -1.90034018     0.12830684    -3.94166449    -0.37973332     1.67595120    -0.61730095
O      -5.86278943     8.58167316    -8.04009050     0.37486356     1.19754688     0.21387967
O      -5.82262150     0.21080224    -4.07393155     0.41046211     0.20561298    -0.40197657
O      -9.85742186     8.18555139    -8.08342036    -0.08328610     1.48905156    -0.62284829
