# total energy = -630.10772957 eV

CRYSTAL
PRIMVEC
        0.00285542     0.02004370    -7.95977623
       -7.82940539     0.00763210    -3.98158109
       -3.91729101     8.74642787     0.01461334
PRIMCOORD
56 1
Li     -3.97074710     2.26113484    -2.09939815    -0.16779425    -0.25818885     1.14088006
Li     -4.01915358     2.39317078    -6.08326440    -0.12716246    -0.52628776     0.52384673
Li     -7.93536476     2.34709454   -10.09873114     0.76215042    -0.28077373     0.66699367
Li     -7.89068600     2.47776286    -5.98096636     0.33437704    -0.36846087     0.27106927
Li     -3.75821443     6.69098113    -1.97445673    -1.01976061    -1.00655183     0.07879935
Li     -3.72558347     6.37594093    -5.72170194    -0.40527082     0.26189669    -0.70425356
Li     -7.94900576     6.33116141    -9.84341223     1.12447218     0.12150286     0.08034736
Li     -7.96072068     6.24198839    -5.81820395     0.74787098     0.35283033    -0.24317850
Ti     -2.00670531     2.29471263    -4.15507612    -0.28845449     0.50641050     0.12250729
Ti     -5.83555469     6.80045804    -7.77442483    -0.08224104     0.50693052    -2.00507773
Ti     -7.80696022     4.36075708    -7.74707378    -0.28339913     1.47161688     0.02010640
Ti     -7.84399882     4.31624356    -3.74389544    -0.62026359     1.01087483     0.84906847
Ti     -3.95488456     4.36774425    -7.71081819     1.04374972     0.70674426    -2.93020815
Ti     -4.13339902     4.25935244    -3.72979321     0.66582661     2.26599633    -0.12765108
Ti     -1.86098727     0.12875743    -2.17021421    -0.45231153    -4.08339416     0.63300070
Ni     -5.92799799     2.41927735    -8.10006448     0.16693368    -1.73562674     0.97808624
Ni     -5.94190810     2.15412052    -4.02356806    -0.03228135     0.70875466    -0.67408467
Ni     -9.81316014     6.36115847    -7.86214033    -0.18680067     0.29261559     0.18639458
Ni     -9.62903322     6.64255669    -3.95668953    -1.64932452    -0.81515002     0.34545981
Ni     -1.97282156     2.26338472    -8.10191173    -0.41468061     0.44424181     0.94930872
Ni     -5.90997241     6.61240860    -3.94045911     0.20828163     0.44088462     0.72924838
Ni     -1.97840700     0.05704684    -5.89572326     0.37490958    -0.07548913    -0.93398367
Mo     -9.72749075     8.69498827   -10.09980419     0.16563440    -0.42428171    -0.03842389
Mo     -9.76145346     8.68937049    -6.21341389     1.45686585     1.21885066    -1.39539699
O      -2.07454673     1.93234467    -2.04349893     1.01196500     1.60934000    -0.09255918
O      -1.93764409     1.95466171    -6.03476683    -0.83792056    -0.76867243     0.15794418
O      -6.03942112     6.85343658    -1.94063205     0.59479576     0.65547055    -0.44501706
O      -5.81440219     6.94732104    -5.85519193    -0.46657926    -0.41514695     0.53086722
O      -5.85325221     2.02747333   -10.00619471    -0.69102866    -0.04919440    -0.56266636
O      -6.01038986     2.01398953    -6.06981690     0.60943408    -0.53610223     0.98250711
O      -9.69899294     6.71426559    -9.92051749    -0.15415755     0.93458255     0.24964604
O      -9.69660887     6.79666764    -5.91179695    -1.03828752    -0.59211229     0.21047506
O      -4.02115412     2.30841518    -3.95064900     1.15456779     0.30871384    -1.28197609
O      -3.97067769     2.45026993    -7.94095634     0.31538482    -0.10442414    -0.74041696
O      -7.84426094     2.36986311    -4.02147967    -0.50753333    -0.07080743    -0.05072415
O      -7.90852626     2.46430259    -8.07999733    -0.30418016    -0.67760027     0.42915798
O      -3.96966612     6.31165013    -3.90897161     0.33418950    -0.77117909     0.12150837
O      -3.97130420     6.36710457    -8.00583561     0.06303333    -0.23038280     0.77193694
O      -7.82066461     6.32456202    -3.89349811     0.74130143    -0.27721058    -0.47799925
O      -7.85139164     6.31799214    -7.82252339     0.56514059     0.01161132    -0.25695096
O      -4.04446927     4.37442295    -2.01401086     0.22556437    -0.40960183     0.61648762
O      -3.74536561     4.35159806    -6.01832381    -0.22570621     0.21541666     2.11652777
O      -7.91650186     4.42302846    -9.87314319     0.07554743    -0.54349770    -1.64159505
O      -7.90384839     4.36916467    -5.97052410     0.11238937    -0.15523271    -0.42028917
O      -3.94534879     0.08316857    -2.01279550    -0.65453289    -0.43941106     0.32637765
O      -7.95601434     8.61897438    -6.04907016    -0.63592663     0.95298266    -0.21680047
O     -11.63227341     8.54287867    -6.12852852    -1.06787872     0.87259454     0.55537041
O     -11.48979731     8.55367680    -9.87455390    -0.47419410     0.62169179    -0.13574207
O      -2.07089346     4.26202199    -4.02662267     0.33101411    -1.23468219     0.16115248
O      -9.74143328     4.30762743    -4.24568041    -0.69257546    -0.35441974     1.01402797
O      -5.95235698     4.14355130    -4.13228237    -0.50655219    -0.18081677     0.07867141
O      -5.89253948     4.32706200    -7.90288053     0.16117696     0.32672640    -0.17219579
O      -1.99510131     0.26115993    -3.99746832     0.09998903     0.61474881    -0.53948174
O      -5.74670494     8.61032303    -7.93744424    -0.28365289     0.20386138     0.49050608
O      -5.85968012     0.29003327    -4.04246543    -0.30759569     0.01212984     0.01266458
O      -6.01201205     0.57776458    -8.01509104     1.02615887    -0.33598775    -0.26442733
