# total energy = -630.65739203 eV

CRYSTAL
PRIMVEC
        0.00279571     0.02951795    -7.98606283
       -7.83802570     0.01298533    -3.99532603
       -3.92160916     8.71933433     0.00634407
PRIMCOORD
56 1
Li     -3.93276993     2.38558201    -1.84208111    -0.16381223     0.29646088    -0.66700681
Li     -3.94398601     2.16897689    -6.09026653     0.61944397     0.38294841     0.21024442
Li     -7.79803129     2.04761374    -9.80713694    -0.15322422     0.65859876    -0.46525266
Li     -7.74867077     2.12351126    -5.88339173    -0.42971162     0.36487856     0.04387053
Li     -3.89425671     6.67415853    -2.12508438     0.64136299    -0.05770373     0.36785010
Li     -3.94911457     6.78920851    -5.97119999     0.03717212    -1.19201008     0.31155004
Li     -7.66915818     6.55689327    -9.95495074    -0.67321502    -0.34975325     0.32289099
Li     -7.91232360     6.59310075    -5.97331957     0.47712758    -0.29421750     0.02152887
Ti     -1.99196054     2.35152033    -4.02156656     0.50527829     0.34413220     0.20983717
Ti     -5.70970070     6.73513233    -7.93822205    -1.41430257     0.25072961    -1.12040172
Ti     -7.76414128     4.42012164    -7.65436980     0.13178153     0.46654327     0.14038516
Ti     -7.90586603     4.31167162    -3.58841221    -0.45929295    -0.54768549    -0.17429395
Ti     -3.91228423     4.44751672    -7.74749938     0.81911593    -0.91731306    -0.36898012
Ti     -4.13249544     4.44678925    -3.72662031    -0.17753291     0.06876407     1.13029134
Ti     -2.27558971     0.05821905    -2.15392707     1.01199132    -0.14524111     1.75160223
Ni     -5.90596664     2.12525330    -7.91079743     0.38620438     0.78062132    -0.38480218
Ni     -5.89956596     2.18322716    -4.03495252     0.40916582     0.88594729     0.68825574
Ni     -9.93831158     6.26100491    -8.07647518     1.67857256     0.65282466     0.35476161
Ni     -9.67488646     6.64220169    -4.00556046    -0.89376611    -0.08039069    -0.62505586
Ni     -1.91620802     2.01783742    -8.01844905    -0.07118748     0.97632917     0.65740772
Ni     -5.97740247     6.79761544    -4.07583846     0.64539652    -0.70378773     0.39320738
Ni     -1.92049190     0.03614329    -5.95012745    -0.75476602     0.99846859    -0.36311356
Mo     -9.92117841     8.66517910   -10.24423444     0.86055317    -1.18923986    -1.03207676
Mo     -5.74254303     0.14301945    -6.46180853    -1.90876844    -1.81111961     0.73412856
O      -2.04416228     1.98366884    -2.00252195     0.54279920    -0.70832664     0.02254676
O      -1.96187954     1.91154269    -5.95227491     0.20872134    -0.72908327     0.13225747
O      -5.73124695     6.91517744    -1.95007459    -1.08886342     0.15598512    -0.82446070
O      -5.90411874     6.95188184    -6.01105007    -0.35468473    -0.19358252     0.68761778
O      -5.85823659     1.81156298    -9.83666151    -0.18793495    -0.16317594     0.87333042
O      -5.79712987     2.05805623    -5.96815962    -0.13878514    -0.41483063    -1.01074841
O      -9.83915681     6.67004896   -10.09629200     0.32438412     0.75160523    -0.64374938
O      -9.70270295     6.75512074    -5.96906463    -0.39590922     0.84370202     0.56462500
O      -3.86216402     2.47368205    -3.82651076    -0.96826505    -0.22462632    -0.95094974
O      -4.07757826     2.45223401    -8.05589736    -0.15682683     0.15478842     1.25886468
O      -7.76139009     2.37816441    -3.94746026    -0.20944496    -1.25139254     0.02759513
O      -7.81989504     2.45634147    -7.86135889    -0.30115400    -1.45943277    -0.47174554
O      -4.01558959     6.35641118    -4.12395655    -0.16830059    -0.11700910     0.57539715
O      -3.89949231     6.53492013    -7.95882114     1.15156063    -0.31732216     0.19045302
O      -7.81315811     6.22229577    -3.97612616    -0.01795816     0.83534717     0.30017005
O      -7.91208217     6.27142749    -7.96672906    -0.37070429     0.81756864    -0.27191520
O      -3.91936244     4.64369190    -1.94090039     0.02316875    -0.53959641    -1.11586160
O      -3.89966146     4.47614769    -6.00084542    -0.12252920    -0.17225269    -0.11227292
O      -7.86652545     4.16873349    -9.80723228     0.26342205     0.51585745    -0.82654530
O      -7.80904978     4.23594911    -5.91221369     0.10679185     0.39397263    -0.38297036
O      -7.94568662     8.50759984    -2.19741634    -0.83851922     0.13697559     0.65527551
O      -3.98523022     0.08779855    -6.07338992     0.85448953    -0.07073869     0.17392685
O     -11.36756016     8.72492149    -5.88737479    -0.08547026     0.53532071    -0.87981688
O      -3.86833153     8.62549642    -6.08829377    -0.43221984     0.90506133     0.12456569
O      -2.01705765     4.30071893    -3.99217755     0.04332689     0.00095882    -0.00514290
O      -1.93108072     3.89443249    -7.93111314    -0.66120439     0.05349849    -0.18832270
O      -5.95691440     4.08516011    -3.93566551     0.38954554    -0.13176216    -0.05700051
O      -5.87051641     4.84724422    -8.02606192     0.82790086    -0.37455633     0.50552556
O      -1.98467368     0.25882044    -3.93639509     0.61984634     0.26017748    -1.50060598
O      -1.98374262     0.12027756    -8.10025705     0.14605755    -0.77142413     0.05669907
O      -5.79366926     0.32306447    -4.04881911    -0.13759935     0.02994460     0.60208456
O      -9.80648085     8.10634082    -8.18359894    -0.01689476     0.60459816     0.30719050
