# total energy = -630.83199789 eV

CRYSTAL
PRIMVEC
        0.00279571     0.02951795    -7.98606283
       -7.83802570     0.01298533    -3.99532603
       -3.92160916     8.71933433     0.00634407
PRIMCOORD
56 1
Li     -4.14804161     2.09448795    -1.95881921     0.73997182     0.27740088     0.11272164
Li     -4.06669676     2.05936243    -5.99613551     0.92952371     0.19363479    -0.02669111
Li     -7.81840350     2.30577840    -9.81349380     0.45749051     0.19900902    -0.65233248
Li     -7.84145644     2.20225790    -6.08027348    -0.07315485    -0.10175972     1.16491466
Li     -3.94064703     6.46074719    -2.05041575     0.27509389     0.33834187     0.50081735
Li     -3.95809132     6.64430552    -5.80388642    -0.23105145    -0.68668643    -0.09199555
Li     -7.92097062     6.44569414    -9.84195027     0.26632813    -0.15368517    -0.23308318
Li     -7.88432528     6.46297702    -5.93040615     0.44270497     0.05501198     0.08049579
Ti     -1.96891432     2.39300234    -4.05250725     0.56595298     0.54418574     0.33110469
Ti     -5.71386904     6.79363313    -8.00405653    -1.31504045     0.17585988     0.69197248
Ti     -7.60516252     4.47895067    -7.70512302     0.32615079    -0.61376960    -0.60834682
Ti     -7.74935109     4.36554497    -3.76944092    -1.02365725    -0.66086246     0.65353580
Ti     -3.81501479     4.44546246    -7.69208174     0.17031681    -0.81537659    -0.31532374
Ti     -4.04996747     4.39089390    -3.68909388     1.26336512     0.38076401    -0.23889348
Ti     -2.28850918     0.05859519    -2.29185352     0.33075265    -1.29282615     1.15050564
Ni     -5.86686298     2.17369531    -7.88075812     0.39188355    -0.14877010    -0.83372447
Ni     -5.85862815     2.30574215    -4.10840909     0.79930775    -0.82479196     0.46023946
Ni     -9.87422790     6.29786233    -7.92445696     1.34435089    -0.10889375    -1.01595856
Ni     -9.73700957     6.55046335    -3.99618830    -0.17984404     0.13490786    -0.39766934
Ni     -1.98305019     2.20828186    -7.94853312     0.53298922    -0.74866128    -0.16971447
Ni     -5.91721893     6.64741078    -3.94876353     0.24434544    -0.30190182    -0.43901557
Ni     -2.04427514     0.10018510    -5.94458845     0.31512470    -1.19936158    -0.89792225
Mo    -10.02381940     8.62457412   -10.28178194     1.59912689     0.40952526    -0.17775748
Mo     -9.75857583     8.67068656    -6.42345884    -1.26201742     0.66579066     0.58527513
O      -2.00146974     1.91079438    -2.17022911     0.10490090     0.56377018     1.44074079
O      -1.90549825     1.96680485    -5.93496326    -0.72008457    -0.36424601    -0.60063085
O      -5.86416618     6.83910726    -1.96168214    -0.28307542     0.69765090    -0.54022556
O      -5.85497825     6.90874769    -5.98345514    -0.68437622     0.94536579     0.94787323
O      -5.90479020     1.77338554    -9.72809125    -0.31483891    -0.54120240    -0.00763751
O      -5.88648806     1.90814954    -6.06860928     0.08649910     0.25245994     0.41752917
O      -9.80648703     6.63974167   -10.10467016    -0.45720524     1.30039274     0.11889461
O      -9.76699717     6.72843033    -5.97847110    -0.30193244     0.05553464     1.44537976
O      -3.92674021     2.40334148    -4.00316414     0.27270048     0.51067888    -0.16382614
O      -3.99079993     2.43708793    -8.06128071     0.11086887     0.58533680     1.15236957
O      -7.63213696     2.39736806    -3.88770084    -1.70363855    -0.06523178    -0.89192708
O      -7.74630534     2.48288468    -7.86952514    -0.77080584    -0.30897783    -1.09944149
O      -4.00439601     6.35351138    -3.90872233     0.36503495    -0.17748726    -0.36035818
O      -3.89297389     6.52940763    -7.82908357     1.38489555    -0.30847677    -1.16122142
O      -7.77835487     6.30228848    -3.97828755    -0.58473391     0.55452860     0.06293538
O      -7.82218822     6.32959510    -7.89496674    -0.22418578     0.59186091    -0.55998515
O      -4.08854975     4.51277720    -1.95280422     0.82328326    -0.13487787     0.23600196
O      -3.93895548     4.57045314    -5.95559383     0.07800426    -0.46925304     0.07978053
O      -7.85201784     4.34246553    -9.98366330    -0.01565555     0.34758623     0.40558205
O      -7.88344065     4.38838840    -5.98643672     0.40524234    -0.12555509     0.98148748
O      -7.98712953     8.66211902   -10.06104506     0.59600146     0.30783860    -0.26646441
O      -7.96449182     8.73280254    -6.04096471     0.28251382     0.35160354     0.16543755
O     -11.53983925     8.72311550    -6.07993640     0.14164275    -0.05006673    -0.31080813
O      -7.80771760     0.11472930   -10.02312993    -0.66393430    -0.93087720     0.22013005
O      -9.70785989     4.34577054    -7.92793680    -1.57284742    -0.16332562    -0.30794985
O      -1.89640559     4.08181599    -8.00152658    -0.70964567     0.03051004    -0.08299362
O      -5.84278529     4.24863100    -3.97886641    -1.11549586    -0.71588358    -0.74276755
O      -5.74893641     4.73265540    -8.05243015    -0.42234385     0.23356528     0.60608762
O      -1.92347148     0.36264153    -4.06347393    -0.13530620    -0.49683603    -0.72164297
O      -5.91406971     8.72643224    -7.93754037     0.19460908     0.11769071    -0.07613976
O      -5.85924432     0.23841027    -4.06039642    -0.29266276     0.55808237     0.45973051
O      -9.68139121     8.10086169    -8.16641545    -0.82526013     0.22277885    -0.38503718
