# total energy = -629.90643216 eV

CRYSTAL
PRIMVEC
        0.00279571     0.02951795    -7.98606283
       -7.83802570     0.01298533    -3.99532603
       -3.92160916     8.71933433     0.00634407
PRIMCOORD
56 1
Li     -4.03832963     2.05121215    -1.86650156     0.09397901     0.22674398    -0.02832078
Li     -3.92039395     2.24541968    -5.90987306    -0.30526277     0.02914453    -0.10838417
Li     -7.80032441     2.07285545   -10.09119568     0.16350205    -0.25036672     1.35564889
Li     -7.88896723     2.43784541    -6.07671524    -0.11768724    -0.03506033     0.62204557
Li     -3.84931475     6.56441926    -1.92482489    -0.72430416    -0.29304412     0.00996381
Li     -3.94857257     6.64804238    -5.85456330     0.20929683    -0.47840557    -0.15132108
Li     -7.74138237     6.79889754    -9.99050989    -0.16869793    -0.78360922     0.38089282
Li     -7.94387699     6.54576194    -5.99510752     0.10413925    -0.41754991    -0.21833907
Ti     -2.04811950     2.41654605    -4.07127371     1.03371434     0.27712683     0.74511935
Ti     -5.75711213     6.81978687    -7.97122177    -0.62999301    -1.40606564    -0.00174701
Ti     -7.58492360     4.35369258    -7.91640585    -0.67262772     1.29002453     1.61797695
Ti     -8.01840929     4.39420231    -3.63446913     0.78028663    -0.43489839    -0.05459850
Ti     -3.96347315     4.39167437    -7.72468178     0.98698861     0.17677854     0.02427392
Ti     -4.08663732     4.43553852    -3.60065729    -0.53864981     1.19974376    -0.26243484
Ti     -1.78356971     0.01013042    -2.22251238     0.14554403    -0.19771748     0.09865463
Ni     -5.82915046     2.05495915    -7.89520729    -0.74023890     0.21756297    -1.15331000
Ni     -6.00108312     2.36844587    -4.03305716     0.18632926    -0.32939871     0.71422910
Ni     -9.91363696     6.31870573    -7.97175526     0.72507565    -0.03396224    -0.15240775
Ni     -9.74287853     6.66191937    -4.00539454    -1.61704040    -0.37479771     0.36446657
Ni     -1.97708747     2.14800878    -7.95181636    -0.69501312     0.71879929    -0.25610673
Ni     -5.90736565     6.60366821    -4.13063492    -0.98893889    -0.36736022     1.39028283
Ni     -5.68287050     8.74013587    -5.95997831    -1.17692941     0.13018823     0.48194018
Mo     -9.72962070     8.54792182   -10.30030460    -2.06661884     1.50664025     0.66114657
Mo     -5.86469255     0.09302026    -6.41176025     0.29256652    -1.66828131     1.20065144
O      -2.14388672     1.86407539    -2.10790549     0.95061995     0.95453102     0.02087096
O      -1.91927285     1.85127158    -5.94489539    -0.57766342     0.16067653     0.25045723
O      -5.81649756     6.78755009    -1.95728696    -0.62124983     0.68850729    -0.25305759
O      -5.93526316     6.93806069    -5.91437321     0.36982195    -0.04933769    -1.03833463
O      -5.91120788     1.84960728    -9.71080308     0.45232893    -0.48607876    -0.93439489
O      -5.92039983     1.90265620    -6.06422734    -0.73207747     2.42114015     0.62698003
O      -9.78613526     6.63665373    -9.98835239     0.61509472     0.63024958    -1.43946161
O      -9.94191903     6.90843176    -5.91534891     1.26887165    -0.70577176     0.46808293
O      -4.02300424     2.59800159    -3.90966185     0.61621670    -2.45862778    -1.03342371
O      -3.97217340     2.42352084    -7.82617721    -0.02430969    -0.79376824    -0.59548361
O      -7.95393309     2.40404822    -3.82555826     0.97361354     0.46455892    -1.93009313
O      -7.91146600     2.32460207    -8.07140878     0.01003640     0.79698105     1.10558140
O      -4.05747308     6.34270031    -3.95304717     0.74646592     0.12139001    -0.06489185
O      -3.86641618     6.46476520    -7.88315068     0.26750507     0.18989392    -0.31456539
O      -7.94010470     6.29206399    -4.07921107     1.12886571     0.33732359     0.66142010
O      -7.89595479     6.30049524    -8.02158931     0.00170461     0.59802627     0.02696555
O      -4.05101671     4.46639954    -1.87290699     0.33243555     0.03359335     0.73236906
O      -3.94018653     4.45294707    -5.98195022     0.15731615    -0.15027339     0.22117703
O      -8.01555323     4.31989814    -9.83650026    -0.14606108     0.20850694    -1.61893616
O      -7.80835652     4.43726614    -6.14608504    -0.12354182    -0.99046618    -0.06166921
O      -7.90907016     8.71040436    -2.05222243    -0.54857141    -0.73264190     0.03466420
O      -4.20141248     0.08961239    -5.81383982     0.45131015    -0.40256673    -1.15018231
O      -7.77479953     0.06202941    -6.03023348    -0.39922502     0.34390753    -0.04858006
O     -11.61065874     8.60827025    -9.97064012     1.02674675     0.19763100    -0.24813465
O      -2.07544746     4.42654890    -3.86395408     0.23036345    -1.85601127    -0.56911096
O      -1.99946989     4.11081826    -0.13190992    -0.02545058    -0.26769184     0.43815581
O      -5.94859565     4.31808707    -3.99808424    -1.81800405    -0.58856211     0.04567255
O      -5.80059198     4.83581561    -8.00080259    -0.00892330    -0.61740207    -0.06757246
O      -1.94528678     0.15186702    -4.02192893    -0.26687634     0.51952500    -0.92124902
O      -5.79821056     8.63472438    -7.98100652    -0.24824952     1.43578643     0.28939930
O      -6.00463695     0.38650259    -4.03484148     0.38954540     0.58615032     0.21533800
O      -9.97438645     8.11773964    -8.10426384     1.15734701     0.75479502     0.05001117
