# total energy = -630.75017803 eV

CRYSTAL
PRIMVEC
        0.00279571     0.02951795    -7.98606283
       -7.83802570     0.01298533    -3.99532603
       -3.92160916     8.71933433     0.00634407
PRIMCOORD
56 1
Li     -3.99703695     2.27217405    -1.99439100     0.22283431     0.04305176     0.16703900
Li     -4.00989528     2.31586199    -6.06735426     0.01344530    -0.55969563     0.24219214
Li     -7.87503896     2.34981695   -10.12092107    -0.08177352    -0.36342777     0.45250259
Li     -7.83916695     2.15233790    -6.01490440    -0.29661149     0.07066282     0.07138193
Li     -3.94334194     6.30296987    -1.83545369     0.18659918     0.27516572    -0.80394748
Li     -3.85044873     6.66542408    -5.91625696    -0.31971407    -0.55014042     0.45311114
Li     -7.81979364     6.42404141   -10.07170632     0.05241886     0.16196810     0.79605651
Li     -7.97437791     6.37516044    -5.98947402     0.76442419     0.20393549     0.42156154
Ti     -1.96695206     2.28677411    -4.05536181    -1.05333619    -0.61587206     0.00922841
Ti     -5.79741682     6.78329515    -7.82893427    -0.38439518    -1.40425492    -1.61531385
Ti     -7.84806090     4.46862989    -7.80730368     0.38518931    -0.15762180     1.42145311
Ti     -7.78582001     4.28850741    -3.81134264    -0.00644628     0.40845188    -0.31027933
Ti     -3.82727271     4.41209663    -7.69319578    -0.27083709    -0.98662071     0.73455329
Ti     -4.01582953     4.44395364    -3.75600187     0.52705052    -0.84260436    -0.15246569
Ti     -5.97546694     8.67331741    -2.27839360    -0.29334013    -0.37712804     0.37864741
Ni     -5.87821724     2.52822670    -8.18835069     0.01716309    -1.92830328     0.42698868
Ni     -5.84506225     2.16009955    -4.04518156    -0.71494702     0.49005676    -0.02983373
Ni     -9.85724418     6.63159242    -7.87739566     0.39578384    -0.23084011     0.04970770
Ni     -9.74570145     6.46169391    -4.09793653    -0.16483233    -0.56220185     1.58196084
Ni     -1.97648870     2.24137779    -7.94123398    -0.51342531     0.33653179    -1.05475451
Ni     -5.91030114     6.51191996    -3.88453291     0.18460054    -0.28681795    -0.66056662
Ni     -5.97984266     8.64294795    -5.98321095     0.11173548     1.15444965     1.10915132
Mo     -9.86922923     8.65200787   -10.11838278     0.98979438     0.15471951     0.51531454
Mo     -5.85934881     0.04497999    -6.30514818    -0.39482126     0.29741892    -1.93875350
O      -2.07192285     1.90271685    -1.99262276     0.90400273    -1.07934642    -0.62730377
O      -2.05310336     1.87697685    -6.03855322     0.56458181    -0.99864044     0.42449898
O      -5.79744429     6.72595716    -1.91740330    -0.24089826     0.74973259    -0.11504459
O      -5.86456727     6.74872771    -5.94166973    -0.15309742     0.15182841     0.72439055
O      -5.98844729     1.98682684   -10.16514136     0.97904544     0.51665017     0.20589947
O      -5.96544758     1.91253003    -5.94336425     1.03249153     0.77586774     0.48955193
O      -9.77956377     6.74343731    -9.86494197    -0.07619700     0.24809647     0.17181044
O      -9.77278937     6.86144625    -5.89314379    -0.52442129    -0.54865271    -1.17914734
O      -3.93336415     2.28071252    -3.94305062     0.25700016     0.89924333    -0.47004590
O      -3.92531862     2.44910184    -8.04371905     0.06304649     0.89246625     0.25793204
O      -7.92586012     2.34023283    -4.12160072     0.62676283     0.46016721     0.82621045
O      -7.86061296     2.45283064    -7.99750449    -0.02104351     0.15520381    -0.43432166
O      -3.94778042     6.35062271    -3.88058508     0.62564411     0.31179217    -0.40758542
O      -3.84585123     6.39878580    -8.00400788    -0.28488704    -0.73013770     1.26285493
O      -7.87125125     6.27573226    -3.96882862     0.15235832    -0.07951631    -0.44348198
O      -7.70832894     6.43395497    -7.99017783    -1.16770889    -0.86847908     0.29015336
O      -3.92873679     4.29945694    -2.00251643    -0.36457364     0.11307137     0.24964284
O      -3.96337235     4.15712265    -5.91130219     0.46679606     1.10135534    -1.33288853
O      -7.87186751     4.30848744   -10.01544052    -0.25593553     0.18411561    -0.01895676
O      -8.02617034     4.43663929    -6.01267416     0.28033259     0.03152221    -1.44322479
O      -7.79764936     8.48783994    -2.03481728    -0.88831148     0.63974458     0.04530911
O      -7.97960239     8.69985703    -6.19414806    -0.01726337    -0.05934569     0.68106338
O     -11.62691734     8.70113641    -6.15570521    -0.30831337     0.06052713     0.03839619
O     -11.61985994     8.59097847    -9.93238074     0.12886858     0.20501491     0.09781024
O      -2.03475709     4.12125426    -3.99368564     0.49697021     0.67052761    -0.46721529
O      -1.96504602     4.26888626    -0.10081305     0.09441739     0.24461716     0.44294171
O      -5.87635837     4.41647824    -4.07788974    -0.89928325    -0.58777630     0.05348007
O      -5.90289211     4.30600804    -7.88645760     0.18023776     1.37826008    -0.46449078
O      -2.02403626     0.09746633    -4.11047546     0.17135169     0.48677533     0.13308895
O      -5.74871080     8.54205419    -7.77947218    -0.13330445     1.43364268    -1.09269089
O      -5.83901167     0.27841528    -3.95548217    -0.08746150    -0.63253816    -0.17069549
O      -5.70713132     0.68715817    -8.19340709    -0.90051950    -0.88214155     0.17712742
