# total energy = -630.23208050 eV

CRYSTAL
PRIMVEC
        0.00285542     0.02004370    -7.95977623
       -7.82940539     0.00763210    -3.98158109
       -3.91729101     8.74642787     0.01461334
PRIMCOORD
56 1
Li     -3.69443974     2.38407151    -1.93234133    -0.76856574    -0.24419377     0.01297905
Li     -3.74262512     2.15407232    -5.96127345    -0.87009170     0.33176947    -0.15147756
Li     -7.83832452     2.46366657    -9.97851873     0.32139175     0.30187059    -0.00997420
Li     -7.72458103     2.17313790    -5.98728886    -0.33052174     0.30057881     0.36459162
Li     -3.76540089     6.55331941    -1.98963319    -0.70534426    -0.10432318     0.36802302
Li     -3.89730292     6.41883002    -5.96085589    -0.14220168    -0.03169607     0.56464858
Li     -7.78985528     6.35487714    -9.99877724    -0.55094183     0.13487019     0.33478796
Li     -7.89409633     6.76841933    -6.01443620     0.65494057    -0.50984319     0.37999108
Ti     -1.94338048     2.10351634    -4.02744847    -0.14123113     1.21130868    -0.14969722
Ti     -5.80458218     6.66526120    -7.98227940    -1.15618371    -0.48838249     0.22527202
Ti     -7.89281759     4.39522801    -7.73511533    -0.08860432    -0.10210942     1.11592458
Ti     -7.83880246     4.39131243    -3.85364160    -1.14866795    -1.16727271    -0.44284421
Ti     -3.81003160     4.32771065    -7.78441954    -0.87586576     0.71687028     1.42490541
Ti     -4.12547209     4.46911283    -3.76170382     1.45744702    -0.36229012    -0.52705483
Ti     -6.15653250     8.72584448    -2.08263157    -0.26401277    -1.79807356     0.42803575
Ni     -5.81169705     2.41030911    -7.88106207    -0.12295286    -0.14505213    -1.30117621
Ni     -5.76104853     2.10479747    -3.99998936    -1.33478583     0.49265436     0.03624292
Ni     -9.74835162     6.59563174    -7.86332700    -0.45139910    -0.23337754     0.79968540
Ni     -9.75487405     6.66237975    -3.99585919    -0.47935667    -0.80053294     0.73521446
Ni     -1.89703657     2.07340444    -7.94213190    -0.14371898    -0.09409107     0.01558449
Ni     -5.94897274     6.47478588    -3.96261850     0.34557144     0.81827585    -0.32825304
Ni     -5.89584801     8.71641442    -5.97004068    -0.36462328    -0.73194191     0.51173421
Mo     -6.11980613     0.07896562   -10.08560789    -0.11064571    -0.07960622     0.22923536
Mo     -5.85461496     0.01818544    -6.25287698     0.39189488    -0.01301373    -2.05835345
O      -1.81970151     1.77944503    -2.00990271    -0.14027931     1.97101511     0.63899409
O      -1.88790622     1.92666720    -5.96592590     0.03564677    -1.26365933    -0.73606971
O      -5.98781348     6.76896199    -1.93034044     0.89529440    -0.41267087    -1.37751973
O      -5.97522392     6.82856440    -5.88078261     0.51953509     0.49017566    -0.65454996
O      -5.78475064     1.96507075   -10.07145932    -0.67966392     0.22430875     0.22477055
O      -5.80654261     1.94210098    -5.84906400     0.12493578    -0.02615613     0.12538421
O      -9.79181491     7.02339420    -9.70731278     0.46798180    -1.02803453    -0.07679962
O      -9.74635436     6.85663037    -5.87422014     0.04221698     0.10294738    -1.04584326
O      -3.90281324     2.30004635    -3.96336668     1.09353586     0.62124072     0.08663137
O      -3.86287089     2.45827986    -7.94327739     0.52515080    -0.96450793    -0.23517381
O      -7.90394132     2.39891164    -3.96542812     0.73275448    -0.25197724    -0.12369698
O      -7.75128051     2.47123926    -8.03204885    -0.21641826    -0.76094234     0.34716994
O      -3.84290783     6.46090957    -3.84164636    -0.29692795    -1.84113258    -0.85748366
O      -4.00063156     6.41751573    -7.96306939     1.69651779    -0.91028944     0.24240498
O      -7.84265447     6.28693299    -4.05298390    -0.03315725     1.89575473     0.31562324
O      -7.83355588     6.30431819    -8.01815227    -0.21013208     0.62059567     0.68665197
O      -3.89876523     4.29951119    -1.99544715    -0.13565025     0.26584780    -1.00893748
O      -3.86657365     4.27007227    -5.98369644     0.12846499     0.67172797    -0.11601441
O      -7.62852930     4.46397466   -10.06787073    -0.60273085    -0.51262271     0.68599189
O      -7.98036567     4.35749952    -5.95571557     0.32931005    -0.14649286    -1.47622141
O      -4.00508305     0.08147033    -9.97156619    -0.18373760    -0.19136982    -0.12811665
O      -3.92280450     0.03119652    -6.07238201    -0.29644867    -0.23119123    -0.07821048
O     -11.54571492     8.75065167    -6.27446238     0.37169573    -0.25187168     0.96312336
O      -3.98949952     8.57736521    -5.99978216     0.92784645     1.10783129     0.42419050
O      -1.97379088     4.09177088    -4.07010777    -0.12740311    -0.52090578     0.07690573
O      -9.83300691     4.74644334    -4.00167004     1.19239067     0.29875943    -0.04878789
O      -5.95203150     4.37964412    -4.29325680     1.38491664     0.11670857     0.99276303
O      -5.85849084     4.29459511    -8.02845402     0.08577835     0.49203131     0.57497896
O      -1.92716702     0.09751307    -3.94167190    -0.26409836     0.76551477    -0.67094513
O      -5.57520377     8.43471183    -8.09169462    -1.05674540     1.63042934     0.15884834
O      -9.89529956     8.74098107    -3.94360868     0.53802246    -0.29334298    -0.99289846
O      -5.78738050     0.54744968    -8.09014296    -0.09309714     0.48175607     0.53089524
