# total energy = -630.53612630 eV

CRYSTAL
PRIMVEC
        0.00279571     0.02951795    -7.98606283
       -7.83802570     0.01298533    -3.99532603
       -3.92160916     8.71933433     0.00634407
PRIMCOORD
56 1
Li     -3.74285151     2.20908329    -1.73225355    -0.80964284     0.01798769    -1.07976526
Li     -4.02086168     2.49512585    -6.05539362     0.37023601    -0.48685240     0.54448648
Li     -7.89855895     2.38605716   -10.01525375     0.24944275    -0.24507544     0.19600970
Li     -7.80556100     2.18482009    -6.04536158     0.13963839     0.03573758     0.62935756
Li     -4.06433138     6.24741394    -1.87266937     0.62881014     0.50139102    -0.35282425
Li     -4.00144353     6.65728459    -5.93639394     0.49588003    -0.34952286     0.26028041
Li     -7.83638172     6.28179631    -9.94236111    -0.20680020     0.62574879     0.11610565
Li     -7.91364968     6.32222507    -5.76904607     0.37502218     0.39027351    -0.76674689
Ti     -1.99599249     2.20121123    -4.03993367    -0.15352627    -1.08805042    -0.19604325
Ti     -5.95463689     6.85408326    -7.98969527    -0.94449720     0.49010038     0.47889389
Ti     -7.92041045     4.39458393    -7.77002558     0.82031555     0.13065885     1.03191995
Ti     -7.95609648     4.42798769    -3.74732672    -0.37651139    -1.28525850    -1.29857942
Ti     -3.96678942     4.46099062    -7.77521839     0.38183938    -0.89913300     0.61509887
Ti     -4.04820719     4.38229542    -3.73620347    -0.47258735     0.44781613     0.10764769
Ti     -5.57053532     8.63911514    -2.20185335    -1.37725583    -0.24730926     0.79842674
Ni     -5.82009685     2.33526941    -8.00872985    -0.45848446     1.08864054    -0.43231447
Ni     -5.87253349     2.42519899    -3.98610192    -0.87242233    -1.15877408     0.90652699
Ni     -9.86670431     6.49232923    -7.91421100    -0.09191101     0.92771155     0.42831113
Ni     -9.81556747     6.50690198    -3.91635283    -0.71117171     0.82264368    -0.36001505
Ni     -1.89659907     1.96579363    -8.02230426     0.12174704     0.47745779     1.08359961
Ni     -5.89350461     6.58997025    -4.04430092    -0.48065665    -0.10280103     0.47742989
Ni     -5.80936953     8.63031864    -6.03868184    -0.67621988     0.83795944     0.77071079
Mo     -5.93762803     0.06841919   -10.25499753    -0.68632747     1.21121275     0.31822181
Mo     -9.62026390     8.61510122    -6.32418276     0.84620578     0.72830162     1.26812101
O      -1.92508990     1.82917223    -2.05303795    -0.06836327     0.28019318     0.21498929
O      -1.93650604     1.77840359    -5.92542467    -0.12806557    -0.01969136    -1.07645404
O      -5.88636367     6.74457753    -1.91898701    -0.54840089    -0.01573966    -0.82091208
O      -5.87697925     6.77914777    -6.06803990    -0.55809648    -0.07660001     0.73572433
O      -5.95176280     2.14763162   -10.04323836     0.25886885    -1.44940684    -0.21809585
O      -5.87844977     1.76287591    -5.78765623     0.27398591     0.76569842    -0.21637193
O      -9.81289551     6.96326010    -9.67967418    -0.94647212    -0.87718827    -0.44525450
O      -9.77817242     6.75359905    -6.03952863    -0.59701515     0.01435516     0.17083649
O      -3.93641508     2.39074238    -3.94310157    -0.54341156     0.23703533    -0.34518286
O      -3.79930155     2.36694574    -7.93578668    -0.49930111     1.44100319     0.36987942
O      -7.85034222     2.46313520    -3.94806650     0.24280868     0.06395942    -0.85899923
O      -7.83015496     2.41848109    -8.00248206    -0.17905002     0.44544333     0.43082594
O      -3.98965240     6.39277281    -3.89594663     1.18821858    -0.91814290    -0.17676488
O      -4.08842419     6.39787208    -7.94326004     0.90438700    -0.14196239    -0.25522340
O      -7.89086325     6.33853079    -3.94250166     0.30515712     0.98208646     0.44878487
O      -7.91535887     6.45888760    -8.01294877     0.19266967    -1.50966240     0.41857177
O      -3.91647297     4.40744316    -1.97268778     0.11151103    -0.49609619    -0.38477677
O      -3.90858443     4.50453621    -5.98464662    -0.17912709    -0.59122893    -0.35376167
O      -8.07643412     4.34649743    -9.99921577    -0.13259458     0.49723949     1.40392629
O      -8.07225668     4.48185292    -5.97283167     0.64490704    -0.72863820    -1.70473338
O      -4.23181223     0.06039326    -9.93930395     1.37134902     0.64559136    -0.59317352
O      -7.84344579     8.65695567    -6.07604070    -0.55186808    -0.42880868     0.06238553
O     -11.68266979     8.73284711    -6.07215623     2.28189484    -0.41717414     0.13891548
O      -3.96600568     8.68849036    -6.13820711     0.58906914     0.23041627     0.49343495
O      -2.02260643     4.01538874    -4.04002112     0.01493046     1.33093425    -0.01617698
O      -9.89526333     4.76921086    -4.13380749     0.05927385    -1.63963069     0.56032166
O      -5.99008705     4.63346946    -3.91825422     0.69906826    -0.22333213    -0.55148638
O      -5.95599727     4.25293577    -8.08888470     0.26433907     0.06794084     0.56005261
O      -5.78860852     8.72490900    -4.00169514    -0.66409155    -0.08265417    -0.81405402
O      -5.96581157     8.66978356    -8.14550355     0.07033264    -0.67100832    -0.06019796
O      -9.92812005     8.35021022    -4.00683466     0.68817100     0.42299163    -1.45662341
O      -5.80165112     0.56112401    -7.99154069    -0.70995594    -0.78557788    -1.09148087
