# total energy = -630.72211420 eV

CRYSTAL
PRIMVEC
        0.00279571     0.02951795    -7.98606283
       -7.83802570     0.01298533    -3.99532603
       -3.92160916     8.71933433     0.00634407
PRIMCOORD
56 1
Li     -3.96003965     2.18310637    -2.06265514    -0.26101263    -0.12378350     0.39530416
Li     -3.98969299     2.39276378    -5.94599918     0.00384755    -0.31041248    -0.55373005
Li     -7.82167274     2.19637012    -9.95071713     0.31632686     0.20892695    -0.03925492
Li     -7.88767280     2.27888053    -5.82058934     0.29488629     0.49633040    -1.25211023
Li     -3.82985410     6.49613023    -1.98516713    -0.32872406    -0.22683356     0.40654516
Li     -3.93762498     6.47243334    -5.80591189     0.02821182    -0.07607439     0.15262653
Li     -7.92301919     6.51587854    -9.91139378     0.24483483     0.17841466     0.16567929
Li     -7.64888962     6.72107727    -5.79962683    -1.53409603    -0.46151232     0.08592209
Ti     -1.89822619     2.32825295    -4.11986546     0.14363667     1.25541232     0.60072720
Ti     -5.74342402     6.81900469    -7.89389872     0.04674373    -0.33047309     0.18719957
Ti     -7.74666325     4.56889062    -7.71217143     0.59647883    -2.30783585     1.82022629
Ti     -7.85070276     4.32760427    -3.67296517    -0.59331526     0.93678718    -0.87022823
Ti     -3.93922531     4.40488845    -7.78725327    -0.09993141    -0.83350200    -0.88726969
Ti     -4.08232218     4.28718602    -3.70341052     0.87510208     1.18320316    -0.13140288
Ti     -1.82328481     0.07336127    -2.23881939    -0.34904745    -0.65833405    -0.66540341
Ni     -5.86083116     2.11415320    -7.97997857     0.20075707    -0.14278488    -0.19146270
Ni     -6.05785849     2.20708446    -4.05776008     1.23043229    -0.05902220     0.07957372
Ni     -9.82874404     6.36769426    -7.90443868    -0.73490410     0.36453931    -0.77362544
Ni     -9.75937174     6.54931103    -3.95945387    -0.72591039    -0.24298466     0.36956758
Ni     -2.00882074     2.22945300    -8.02897568    -0.62111946     0.18285484    -0.00770074
Ni     -5.88387348     6.65961719    -3.82713811    -1.11386473    -0.28704293    -0.77989243
Ni     -1.92851978     0.13350861    -5.94439091    -0.10236100    -2.08128135    -0.70442073
Mo     -9.88685966     8.63412043   -10.38783031     1.31502151     0.28963437     0.23770327
Mo     -9.77235313     8.68840691    -6.31908747     1.73487246     1.72961047    -0.40239802
O      -1.98011596     1.93362578    -2.14316554    -0.07696186     0.75864263     1.05913034
O      -1.91387983     1.91565310    -6.04075502    -0.00598240     0.94518309    -0.03291908
O      -5.99327251     6.94556197    -1.94621933     0.22012070    -0.83811221     0.26426524
O      -5.93606878     6.91688530    -5.88315932     1.38705057     0.80403202     0.17576778
O      -5.94206900     1.96369395    -9.91661631     0.17062266    -1.31711270    -0.00578601
O      -5.92053006     1.95241246    -6.05512792    -0.36131633    -0.81557773    -0.48430906
O      -9.81960645     6.71171103   -10.07452701    -0.22196356    -0.18053408     0.34369233
O      -9.77822097     6.84941899    -5.84052758    -0.11086435    -0.40681842     0.69469616
O      -3.89557331     2.36494934    -4.09070509     0.15501347     0.45551899     0.66862412
O      -3.95424154     2.37118404    -8.06453193    -0.38583870     0.45653855     0.46528582
O      -7.97174206     2.39208955    -4.04359721     0.26660916    -0.02088632     0.97305681
O      -7.73699694     2.54277529    -7.95717331    -1.32020093    -0.86526051    -0.31229462
O      -4.07064654     6.31183222    -3.80296391     0.99152839    -0.78068664    -1.08917832
O      -3.81851814     6.40806186    -7.93052912    -0.36361958     0.61541593    -0.18637786
O      -7.93811187     6.32261249    -3.86275903     1.38096231    -0.50739164    -0.47299273
O      -7.87883663     6.37391313    -7.85321868    -0.39999345     1.82649328    -0.40723550
O      -3.92401432     4.35240135    -1.97474725    -0.05954560    -0.19010239     0.46035352
O      -3.85770343     4.33355142    -6.04586227    -0.31318879     0.31476738     0.89673164
O      -7.77820802     4.29629067    -9.89772710    -0.24571044     0.21399187    -0.29765998
O      -7.59201451     4.32869497    -5.92174703    -0.39776286     0.35613633    -1.51326058
O      -8.03753449     8.58451779    -2.21165965    -0.66042439     0.87944112     0.22973894
O      -4.06049579     0.03393500    -6.05443555    -0.83331030     0.15834893    -0.17611577
O      -3.92723946     8.59295536    -2.24495432     0.23859612     0.77890572     0.55491772
O     -11.64049812     8.56512249    -9.90710787    -0.20404892     0.67693898    -0.15297689
O      -2.01891725     4.37481432    -3.91704280     1.11041708    -0.18877406    -0.38505948
O      -2.04709305     4.21225198    -0.14671827     1.76469238    -0.42556073     0.49946056
O      -5.87721794     4.09734412    -3.95317557    -2.23981502    -0.32882121    -0.17994392
O      -5.81416351     4.96819157    -8.11933169    -0.50062903    -1.45111572     0.54570775
O      -2.00140308     0.41711713    -4.10213114     0.16504025    -0.56775790     0.21585845
O      -5.78815928     8.68127832    -7.86080089    -0.20330408     0.89927882    -0.51543386
O      -6.13748479     0.36287381    -4.19991847     0.06137382     0.19699610     0.50067966
O      -9.84140244     8.24743641    -8.09253988     0.34232470    -0.48579599     0.30996040
