# total energy = -630.64903011 eV

CRYSTAL
PRIMVEC
        0.00285542     0.02004370    -7.95977623
       -7.82940539     0.00763210    -3.98158109
       -3.91729101     8.74642787     0.01461334
PRIMCOORD
56 1
Li     -4.11170152     2.27379852    -1.96398062     0.87455035     0.08648003     0.00805902
Li     -3.87039783     2.30270060    -6.06109802    -0.32813731    -0.00058587     0.42821144
Li     -7.87531766     2.20395725    -9.92802512     0.49092973     0.29690677    -0.29189491
Li     -7.83843950     2.17277657    -5.97830159     0.36759064     0.12284717     0.30286309
Li     -3.97003882     6.13865661    -1.88017769    -0.32011888     0.98319599    -0.13984539
Li     -3.98934828     6.62216203    -5.86039133     0.64160853    -0.26710068    -0.28553782
Li     -7.87950674     6.39118146   -10.00807492     0.40577313    -0.02040496     0.64106151
Li     -7.75048800     6.62619413    -6.00755174    -0.12760951    -0.35383798     0.56258945
Ti     -1.99431108     2.25038602    -3.99188398    -0.00826288     0.65781785    -0.56576240
Ti     -5.86708851     6.80463054    -7.95718397     0.12375404     0.14233356    -0.32267336
Ti     -7.77283096     4.38638632    -7.75560443    -0.41827561     0.47958419     0.61280040
Ti     -7.87135215     4.42892752    -3.83513905     1.57248769    -0.93157827     1.07843035
Ti     -3.84530905     4.37107491    -7.77497978    -0.69928887     0.62642176    -0.01728164
Ti     -4.07829697     4.39352361    -3.77599802     0.27702649     0.35994666    -1.68490374
Ti     -1.89451331     0.02264627    -2.12463902     0.85112887    -1.24808380    -0.39436158
Ni     -5.85217259     2.31949536    -7.97877506    -1.55085636     1.15988087    -0.83558037
Ni     -5.99289349     2.18114116    -4.03951270     1.29936160     0.93287318    -0.49172922
Ni     -9.94391730     6.39674242    -7.70911988     1.91472051     0.12168548    -1.62255848
Ni     -9.78190427     6.50732553    -3.92518681    -0.75885956    -0.10237665    -0.24191003
Ni     -1.96576579     2.30338456    -8.03588913     0.28087377    -0.61589438     0.39421247
Ni     -5.88954157     6.67665302    -3.98019367     0.23214767    -0.05706791     0.33834833
Ni     -1.88410533     0.01635303    -5.94863337    -0.45755427    -0.07109019     0.21423744
Mo     -9.75757068     8.68592692   -10.18506191     0.38369665    -0.02560772     0.32466316
Mo     -9.70701039     8.70438478    -6.22371441    -0.54635962     0.09127703    -0.65877497
O      -1.90480475     1.89081694    -2.02825578    -1.23392291     1.35757649     0.12823502
O      -1.96398058     1.86646433    -6.05330456     0.01246458     0.06129813     0.74727340
O      -5.83939191     6.69224905    -1.98337597    -0.52784182     1.13349757     0.12853798
O      -5.83191287     6.87318001    -5.84719221    -0.41326381     0.41787818    -0.45492350
O      -5.85191871     2.06125424   -10.10982923    -1.07944216    -1.03593107     0.94420274
O      -5.82891709     1.93165025    -6.02673816    -0.51220795     0.13086024     0.94860789
O      -9.71060216     6.81114034    -9.90594100    -0.44472355    -0.08821991    -0.04389817
O     -10.05453971     6.82829416    -5.94287365     1.22189684    -0.01936554     1.26900641
O      -3.96505532     2.45066115    -4.00743558     0.97883770    -0.76457819    -0.33710851
O      -4.07306629     2.46717844    -7.95904143     2.30486531     0.10883487    -0.32572836
O      -7.85102216     2.43066818    -3.98623404    -0.67387798    -0.62564487    -0.24694037
O      -7.79651287     2.37776900    -7.89437784    -1.04067192     0.15241414    -0.91994372
O      -3.90105192     6.41832830    -4.00770886    -1.32097675    -1.20162540     0.83339626
O      -3.92976226     6.44967082    -7.92632494    -0.16637597    -0.96016193     0.14675320
O      -7.89232651     6.33682115    -4.03774778     0.45501760     0.72050260     0.07884719
O      -7.78559462     6.45012109    -7.94306280    -0.21245412    -1.26607663     0.59374345
O      -4.04882997     4.32380813    -2.05533611     0.50574668     0.20019901     1.82332545
O      -4.00427076     4.44245500    -6.05429341     0.29418066    -0.06892095     0.71462203
O      -7.90956047     4.31168044   -10.00609168    -0.03522806     0.45519454    -0.13498518
O      -7.78098144     4.27377716    -5.97894196    -0.28386912     0.52229285    -0.73201554
O      -7.92202977     8.75594624    -9.79877559    -0.04690721     0.13110975    -0.82965396
O      -7.95693073     8.59868839    -6.00534304    -0.63670119    -0.11107446     0.22962899
O      -0.05255031     0.08564914    -2.04431239     0.47487597    -0.30486947    -0.21813691
O     -11.51177280     8.70100456    -9.76899965    -0.07856464     0.27852880    -0.25114616
O      -1.98183478     4.22834403    -3.93514663    -0.30156567    -0.50878537    -0.46767238
O      -1.92127161     4.24237756    -0.06547075    -1.64765926     0.03874708    -0.52029341
O      -5.89078898     4.04759816    -4.03832635    -1.11128426     0.49522901    -0.33458810
O      -5.94574141     4.31011073    -8.08507144     1.39390165     0.02918784     0.14773541
O      -2.11143159     0.27967900    -4.01854494     0.31704109    -0.05966134     0.11604689
O      -5.82670413     8.63974709    -7.85595661     0.03379529    -0.53696696    -0.46809113
O      -5.94380675     0.29945504    -4.07481472     0.10315694     0.13343614     0.12240544
O      -5.70244729     0.52480837    -8.01101030    -0.94593946    -0.64763152    -0.00173244
