# total energy = -630.71338494 eV

CRYSTAL
PRIMVEC
        0.00279571     0.02951795    -7.98606283
       -7.83802570     0.01298533    -3.99532603
       -3.92160916     8.71933433     0.00634407
PRIMCOORD
56 1
Li     -4.01050474     2.44459746    -1.84420364     0.76501193    -0.01301424    -0.13627537
Li     -3.96440069     2.11541542    -5.99131018     0.16837207     0.06644684    -0.36220165
Li     -7.52728925     2.54733072    -9.93634897    -0.69198602    -0.37884168    -0.03277808
Li     -7.86425851     2.07529793    -5.91104193     0.09437965     0.14308383    -0.08636253
Li     -3.89834549     6.40872902    -1.94514581     0.29337769    -0.07605451     0.22314937
Li     -3.88495581     6.66281070    -5.79944328    -0.21413379     0.09953194     0.14357834
Li     -8.03284652     6.26802048    -9.86155601     0.69006283     0.36598947    -0.41034625
Li     -7.86910789     6.66849855    -5.87694892     0.58457269    -0.22788393    -0.12729372
Ti     -2.09443174     2.27902416    -4.15531025     1.27136850     0.62323342     0.52324643
Ti     -5.86946888     6.73033414    -8.07076540    -0.93811149    -0.26670715     1.05501785
Ti     -7.82796405     4.29040266    -7.66939629    -0.53170960     1.42133262     0.14896815
Ti     -8.04685051     4.22979809    -3.79970381     1.70515585     0.05672397    -2.24486456
Ti     -3.91345214     4.44739928    -7.56310434    -0.53006693    -0.78485004    -1.58679824
Ti     -4.11768006     4.43242076    -3.75504454    -0.22409112     0.72197873     0.06580901
Ti     -6.02786051     8.66466295    -2.23531452     0.22984596     1.52893898     1.05904772
Ni     -5.81403986     2.40597917    -8.00610727    -0.60203097     1.21158363    -0.24083707
Ni     -5.84240856     2.09382110    -4.15104175    -0.68007381     0.79560360     1.41738290
Ni     -9.67581371     6.49013972    -7.85159490    -1.79297817     0.51397484     0.59149801
Ni     -9.68830773     6.46776485    -3.99087849    -0.63466578     2.21356025    -0.03933451
Ni     -1.90087840     2.18170077    -7.90258639    -0.15471286    -1.05181286    -1.13718390
Ni     -5.90456387     6.52294073    -3.90360704     0.33227928     0.01077693    -0.95133226
Ni     -1.95180532     0.03879218    -6.00276234     0.27343672    -0.03157565     0.43348647
Mo     -5.88563354     0.04766446   -10.27437552    -1.59486584    -0.59138003     0.61800777
Mo     -9.81708651     8.74017799    -6.39814040    -0.82110630    -0.94513933    -1.16822598
O      -1.88760561     1.83757250    -1.86485757    -1.03834456    -0.06900333    -0.12533436
O      -1.86581915     1.96553943    -6.04838284    -0.72897320    -0.55291881     0.26300903
O      -5.90445742     6.69513081    -2.00108642     0.20280366     0.47514178    -0.22192958
O      -5.89692231     6.92601640    -5.84645904     0.39396225     0.02561328    -0.08867718
O      -5.77717524     1.98439624   -10.20201991    -0.08623533    -0.06908505     0.29859380
O      -5.83931288     1.93230619    -5.98846347    -0.06050304     0.95089667     0.45910113
O      -9.77642194     6.88323487    -9.69330255    -0.12323151     0.60136369    -0.33460848
O      -9.76075421     6.86962656    -5.94535180    -0.52550808    -0.94409994    -0.73546900
O      -3.94668947     2.38701781    -3.97441104     0.11377342    -0.43076224    -0.58743964
O      -3.83602108     2.49180422    -7.91106273    -0.20440509     0.48399193    -0.12313598
O      -7.83006551     2.27702235    -3.91591957    -0.03963155     0.59475625    -0.34808312
O      -7.83370824     2.45280737    -7.97877022     0.45926938    -0.61342023    -0.40653495
O      -3.88957909     6.39395284    -3.81622756     0.24853631    -0.61642571    -0.98004714
O      -3.97281942     6.32282382    -7.91473780     0.25901131     0.98801022     0.11103571
O      -7.72084044     6.24050102    -4.03692905    -0.97815450     0.14748319     0.45716485
O      -7.80466470     6.32565009    -7.96942043    -0.00286891     0.05104855     0.44095293
O      -4.03114194     4.41398556    -2.01556378     0.32553361    -0.49547191     0.66517911
O      -3.86165142     4.30546846    -5.84690696     0.07167522     0.26437729     0.64255666
O      -7.88691626     4.46850152   -10.09119159    -0.15614432    -0.60465874     2.53883873
O      -7.95935497     4.36089175    -5.95367410     0.24439480     0.00207860     0.85930510
O      -7.91376260     8.65574496    -2.05758211     0.36109500     0.16095794     0.02815442
O      -8.02200403     8.65386749    -6.17875576     0.91314780     0.90966035     0.22839141
O      -7.72351007     0.12639925    -6.09908939    -0.11246138    -1.25643118     0.09747913
O      -7.69697865     0.04078671   -10.08688128     0.51306865    -0.17476992    -0.01175911
O      -1.97440461     4.13536580    -3.89062282    -0.46596092     0.03300209    -0.62335217
O      -9.86519358     4.72754005    -4.03134307    -0.58128098    -1.43410749     0.05112918
O      -5.98755877     4.13735023    -4.01831828     0.46891454    -0.04405461    -0.41887456
O      -5.95092087     4.49029618    -7.97997720     1.99784600    -1.07320205     0.36288939
O      -2.05302236     0.34703860    -4.04578389     0.21725192    -0.73670413    -0.47473106
O      -5.89456585     8.53521502    -8.03516465     0.15356194    -0.59581696     0.03578728
O      -9.77992997     8.48403050    -4.07872368     0.36726357     0.02365056    -0.01435207
O      -6.03664412     0.66455278    -8.16137254     1.06975337    -1.44101825     0.10678499
