# total energy = -630.84882466 eV

CRYSTAL
PRIMVEC
        0.00285542     0.02004370    -7.95977623
       -7.82940539     0.00763210    -3.98158109
       -3.91729101     8.74642787     0.01461334
PRIMCOORD
56 1
Li     -4.01628742     2.48729175    -2.04670482     0.44412711    -0.45511875     0.59379606
Li     -3.96448778     2.07453181    -5.96711087     0.06458735    -0.20923041    -0.10725408
Li     -7.67589624     2.31563737    -9.96225737    -0.88995048     0.12156646     0.10085625
Li     -7.78741057     2.40842974    -5.91794077    -0.25601897    -0.27825339     0.12926306
Li     -4.00194135     6.46849369    -2.02318796     0.31431302     0.20625952     0.66867559
Li     -3.88313299     6.47160227    -5.87897687     0.11840470     0.33242783     0.00061671
Li     -7.94798515     6.33401224    -9.81649146     0.52024658    -0.13940351    -0.48972728
Li     -7.80916594     6.40034540    -5.91778063    -0.24750061     0.16346477     0.35653952
Ti     -2.03798769     2.14858892    -3.97827466     0.40597445    -0.23613105    -0.40716234
Ti     -5.85016276     6.56465849    -7.90632821     1.31827970     0.17190174    -0.54957714
Ti     -7.85631419     4.29604553    -7.80485593     0.30318926    -0.27697637     0.37823008
Ti     -7.72155301     4.35738751    -3.79733664     0.05804626     0.91665714     0.61157129
Ti     -3.77869069     4.37714095    -7.67714579     0.71182820     0.17872039    -0.00261615
Ti     -3.96811319     4.54366780    -3.81185269     0.75683239    -1.64080007    -1.43594564
Ti     -2.24841304     0.00634041    -1.97648270     1.16466182    -0.41472101    -0.07697264
Ni     -5.86014190     2.42587365    -7.98473959     0.54950003    -1.05665614     0.12766715
Ni     -5.86387556     2.20465799    -4.08511783     0.24545250    -0.58656870     1.22615599
Ni     -9.76463066     6.68681410    -7.85177298     0.27559847    -0.41603766     0.54529398
Ni     -9.70888448     6.37088974    -3.87564466    -1.26787899     3.41101007    -0.64170256
Ni     -1.90715830     2.05094425    -7.87191801    -0.23252031     0.64894216    -0.87334493
Ni     -5.88258592     6.75336978    -4.02153385     0.01383249    -0.52536032     1.81885789
Ni     -5.99180100     8.66993137    -5.95074339     0.38616060     1.34017887    -0.04634594
Mo     -5.97433865     0.09164858   -10.24810525    -0.04339585    -0.73726076    -1.57332708
Mo     -9.87189407     8.67116757    -6.32104324     0.73040530     0.77037681     0.61073180
O      -2.00526907     1.92217417    -2.01944275     0.71909889     0.08751257     0.58248232
O      -2.04386204     1.84365983    -6.02059851     0.77264252    -1.17185904     0.28182176
O      -5.93805035     6.83259222    -1.98849780     0.22256604    -0.27350792    -0.11731178
O      -5.83612168     6.83065234    -5.85543720    -0.53521214     0.24484702    -1.26069989
O      -5.84193223     1.98022499   -10.09360439    -0.25467939     0.83090221    -0.17889793
O      -5.85318533     1.90040068    -5.86917225    -0.31422145     0.23002238    -0.38873466
O      -9.71161051     6.95480843    -9.70974065    -0.25178791     0.07960101     0.34986424
O      -9.79256543     6.83820759    -5.88357059     0.45351583    -1.23797962    -1.43745964
O      -3.91392712     2.35281429    -3.99047203    -0.73617882     0.48042404    -0.37468588
O      -3.80713810     2.48218140    -7.92304636    -0.32433601    -0.06808230    -0.10472195
O      -7.80354045     2.47300271    -4.00824446     0.08681718    -1.19247440     0.04519234
O      -7.82529112     2.38354243    -7.80305418     0.56973343    -0.25316190    -1.27318614
O      -3.78252285     6.40635941    -3.91821526     0.61576076     1.35677206    -0.12758502
O      -3.90985394     6.40586408    -7.89631436    -0.02408004    -1.10054328    -0.31498081
O      -7.91339793     6.36868900    -3.79890549     1.03370833    -0.16397496    -0.89094880
O      -7.69671594     6.21978625    -7.95444597    -1.56409355     0.93136292     0.45311181
O      -3.83145900     4.35718000    -2.10310598     0.13066141     0.35821192     1.40679510
O      -3.89509061     4.57330144    -5.92099186     0.37760105    -0.73551634    -0.50377218
O      -7.91398755     4.32495709    -9.97726412     0.60510491    -0.08813334     0.17523078
O      -7.95356326     4.40860970    -6.02887393     0.59472704     0.10676373    -0.05067746
O      -3.99097925     0.20687606    -2.01651920    -0.93226444    -0.62295393     0.24353999
O      -7.93427870     8.73596045    -6.05646917    -1.03762601    -0.28712036    -0.20683105
O     -11.61715959     8.64826059    -5.90490139     0.35146634     0.51389344    -0.38088993
O      -7.71721350     0.03248743   -10.12894241    -0.95101916     0.29569978     0.35352779
O      -1.88339741     3.99422289    -4.18909180    -1.21457157     0.59713266     0.50926524
O      -9.62912466     4.65718692    -4.09718962    -1.75326006    -2.09989080     0.40183158
O      -5.81543812     4.84149963    -4.03308282    -1.24125437     0.13537784    -0.12904093
O      -5.72245132     4.32313851    -8.07733425    -0.97769433     0.17081724     0.39684683
O      -1.87955061     0.04439421    -3.94628417    -0.37682162    -0.06713190     0.10964413
O      -5.93082360     8.37282095    -7.95421044    -0.10040951     1.14712337    -0.07893099
O      -9.75774918     8.34765317    -4.03115461     0.34073300     0.26876600     1.33867650
O      -6.00046324     0.55330740    -8.10118949     0.43495900     0.10145846     0.35963169
