# total energy = -630.60501080 eV

CRYSTAL
PRIMVEC
        0.00285542     0.02004370    -7.95977623
       -7.82940539     0.00763210    -3.98158109
       -3.91729101     8.74642787     0.01461334
PRIMCOORD
56 1
Li     -3.94496787     2.23820030    -1.94114684     0.07492933    -0.33196209    -0.10535216
Li     -3.96077457     2.15276675    -5.98613521    -0.31226003     0.25144537    -0.12335409
Li     -7.78128501     1.91163422   -10.00549557    -0.33976122     0.58340085    -0.27576385
Li     -7.73727025     2.20077009    -5.94800247    -0.28443769     0.26295675     0.05316770
Li     -4.07481579     6.29030789    -1.81600693     1.03136069     0.25882853    -0.58902444
Li     -3.98564392     6.37989454    -5.70516490     0.31779120    -0.13175619    -0.56585661
Li     -7.90476987     6.59724236    -9.87145383     0.50094666    -0.37917632     0.13002176
Li     -7.82302423     6.68735977    -5.76340606     0.11245626    -0.21951461    -0.48835402
Ti     -1.90160008     2.23142290    -4.08966529     0.49132906    -0.16432926     0.14075123
Ti     -5.82187143     6.77493622    -7.90478057    -0.89297501     0.57918782     1.18331433
Ti     -7.76140651     4.39082348    -7.69679160     0.42797676     0.07397978    -0.03976251
Ti     -7.78066720     4.38872796    -3.57214764    -1.53818409     0.44186801    -1.50923964
Ti     -3.78414922     4.41388125    -7.75584864     0.43491032    -0.41396048     2.48499335
Ti     -4.05001444     4.28215490    -3.63626539     0.57135740     0.35080367    -1.98165500
Ti     -6.01013918     8.73537359    -2.17009318     0.66160415    -0.08202362     0.55623176
Ni     -5.82329259     2.51442235    -8.09763875    -0.38846521    -1.65238091     0.03418407
Ni     -5.99040983     2.17200497    -4.07789428     0.89714274    -0.17714786     0.40462580
Ni     -9.81426796     6.53855084    -7.79773158     1.30730483     0.04687615    -0.49925529
Ni     -9.74105606     6.62747620    -3.97492549    -0.20517493    -0.78022208    -0.00906156
Ni     -1.98909807     2.03628439    -8.00640744     0.58721176     0.53473292     0.22219582
Ni     -5.73936873     6.61568017    -3.87775773    -1.38225361    -0.21362756    -0.50449929
Ni     -2.01762630     0.06742065    -5.93934127    -0.05087169    -2.93154049    -0.10377110
Mo     -9.84491252     8.68798870   -10.21482698    -1.09537984     0.47661574     1.75448495
Mo     -9.86620883     8.68125020    -6.39705154    -0.48057319     0.32276230    -1.06809482
O      -1.80358978     1.86400224    -1.98308330    -0.74020370    -0.06165276    -0.34459653
O      -2.03155614     1.82549135    -6.07544533     0.01746076     1.51217963     0.71182629
O      -5.88968651     6.74991610    -1.90548752    -0.07930823     0.76692676     0.25555402
O      -5.85605030     6.93506464    -5.86811695     0.04444322     0.07347710    -0.12573389
O      -5.90294335     1.92287710   -10.17756084     0.51337954     0.44780269    -0.09878460
O      -5.86451248     1.98029923    -5.91099336    -0.53066664    -0.73669564    -0.25184930
O      -9.72810925     6.82026531    -9.78797852    -0.65945298     1.02962397     0.98078604
O      -9.81678098     6.72161553    -5.95888497    -0.17240449     1.02126379     0.17922087
O      -3.93653387     2.35418898    -3.93377451     0.22218137     0.19845140    -0.39790763
O      -3.91307278     2.49452328    -8.04029455     0.34449453     0.02654535     0.58963198
O      -7.89022331     2.47477650    -3.97489961    -0.02248108    -0.42499196     0.37022505
O      -7.75069351     2.34588316    -8.16687475    -0.89264052     0.96650925     0.91766325
O      -3.73993853     6.31952257    -3.80707931    -1.56084903    -0.80393892    -0.28553577
O      -3.93944723     6.39954275    -7.87363992    -0.26888561     0.48157190    -0.22956524
O      -7.86684543     6.44318058    -3.93745521     0.68762205    -0.58346887     0.65052001
O      -7.85609484     6.33378128    -7.82352689     0.57409029     0.13341014    -0.20322234
O      -3.86712711     4.32627342    -1.91996362    -0.01224499     0.20668873     0.55306422
O      -3.98735184     4.42630031    -5.91743183     0.38681466    -0.21408318    -1.13140129
O      -8.13543784     4.46705090    -9.84344912     0.37434856     0.02966001     0.73626785
O      -7.86919868     4.25408136    -5.96418641     0.40446171     0.15838805    -0.08175734
O      -3.88766611     0.06995425    -2.02107176    -1.41489208    -0.33882552     0.11207319
O      -8.12390470     8.68088440    -6.10982742     1.38563783     0.13266900     0.60065634
O     -11.68935252     8.67195823    -6.16138424     0.12990335     0.09908307     0.85529577
O      -7.72603417     0.05619150   -10.19595022     0.99718882    -0.63080237     0.65695697
O      -1.90267564     3.99745753    -3.80377153    -1.21472158     0.54690829    -0.66212073
O      -9.73017738     4.78242822    -3.98959221    -0.72275640    -0.34029457    -0.16241069
O      -5.92616057     4.62066469    -3.78575361     1.21103772     0.45132096    -0.37867690
O      -5.81350207     4.42547515    -8.14280079    -0.41796267    -0.05446860     0.61304190
O      -5.90390284     8.75463153    -3.99577714     0.26189216     0.78964944    -0.82207246
O      -5.96485555     8.65264361    -7.81826641     0.30086004    -1.50631820    -1.07007809
O      -9.72362804     8.54896657    -4.00788252     0.16966894     0.16228065    -1.86416531
O      -5.89524342     0.60156423    -8.16626990     0.18535637    -0.06509944     0.32744451
