# total energy = -631.03872784 eV

CRYSTAL
PRIMVEC
        0.00285542     0.02004370    -7.95977623
       -7.82940539     0.00763210    -3.98158109
       -3.91729101     8.74642787     0.01461334
PRIMCOORD
56 1
Li     -3.88316209     2.27314836    -2.04624104     0.11600805     0.04091998     0.62599632
Li     -3.91623421     2.03515430    -6.04626397    -0.26112028     0.29275327     0.31286837
Li     -7.76618877     2.34994563    -9.85601309    -0.06951344    -0.25808808    -0.48317698
Li     -7.82893784     2.31271839    -5.83146463     0.21727741     0.07083008    -0.54102492
Li     -3.85231523     6.65670779    -1.87381139    -0.42115696    -0.50877727    -0.30565147
Li     -3.91771886     6.45124544    -5.88252959     0.12098330    -0.03591333    -0.23861417
Li     -7.89098519     6.43572994    -9.96345639     0.41644464     0.11366091     0.16576158
Li     -7.76866294     6.58423006    -5.92219390    -0.34164231    -0.44543881     0.39662179
Ti     -1.98224027     2.22433155    -3.98645701     0.18860788     0.18056979    -0.70031626
Ti     -5.89449276     6.74488483    -7.84087876     0.74270122    -0.51607448    -0.76744390
Ti     -7.91485840     4.44904910    -7.83974223     0.92099035    -0.28871384     1.35130215
Ti     -7.86121611     4.33154938    -3.69910070     0.04069189     0.54536927     0.91564486
Ti     -3.84401372     4.34400857    -7.75918154    -1.83136841     0.03109470    -0.42916569
Ti     -4.04766479     4.42020026    -3.78115460    -0.13308886    -0.12148741    -1.81387132
Ti     -5.93699628     8.70682123    -2.01975487    -0.74073521    -0.47897103    -1.15833456
Ni     -5.84223295     2.33498028    -8.02515790    -0.18603134     1.65444681     0.34666407
Ni     -5.89857406     2.33984667    -3.95354451     0.54285864    -1.29050424    -0.90170801
Ni     -9.82711449     6.52761214    -7.96951553     0.04632948    -0.16354087     0.29749079
Ni     -9.80123000     6.28363077    -4.03002726     0.42536488     0.10269497     0.21623509
Ni     -1.90114836     2.14448473    -7.94076412    -0.54298944     0.49129023     0.13946489
Ni     -5.80417204     6.67274152    -3.89865236    -1.22386746    -0.36401012    -0.36031958
Ni     -5.84722972     8.73367763    -5.93813552     0.40751247    -0.03131948     0.24222800
Mo     -5.90573615     0.03800762   -10.12904255    -0.57864612    -0.71784589    -0.47872719
Mo     -9.82520185     8.65825657    -6.35231162    -1.07438407     1.48025722    -0.64354082
O      -1.96165315     1.84706756    -1.96566029     0.31546224     0.99402259    -0.01690379
O      -1.90931680     1.80727169    -6.02512517    -0.31960493     0.29213363     0.32627001
O      -5.83731041     6.76214204    -1.91709986    -0.29216987     0.74647456    -0.70114857
O      -5.86779956     6.79188598    -5.90668562    -0.06372450     0.93644395     0.70104675
O      -5.69745895     2.08931207    -9.92173747    -1.36628227     0.38050672    -0.75618151
O      -5.92611336     1.90619204    -6.07318662    -0.42760313     1.01115289     0.47656964
O      -9.74083228     6.85033595   -10.02601005    -0.55421262     0.14505570     0.55438633
O      -9.73533207     6.81272504    -5.97202175    -0.34717587    -0.95924609    -0.02968616
O      -3.93636213     2.45626400    -3.98361922     0.03076602    -0.75214843    -0.36893285
O      -3.88252007     2.41782272    -7.93388836     0.07101333    -0.23400962    -0.40505286
O      -7.82473537     2.44472560    -3.92249338     0.10993188    -1.17307037    -0.13631135
O      -7.89358242     2.40764638    -8.01910408     0.06690879     0.34651787     0.84867199
O      -3.97677663     6.35779457    -3.95843724     1.25382979     0.98494527    -0.18022787
O      -4.01305845     6.35396200    -7.95691970     1.04113576     0.03460587     0.29004407
O      -7.77771615     6.19769543    -3.93502832    -0.23987508     1.42912856    -0.36558227
O      -7.79474416     6.47137120    -7.99299279    -0.76524173    -0.56852287     0.49821644
O      -3.88351184     4.46496970    -2.10239228     0.19465347    -0.09460151     2.88211670
O      -3.82561142     4.45789373    -6.04165961    -0.18034404     0.19266574     1.09389858
O      -7.91158363     4.32446467    -9.82094446    -0.10316932     0.35162107    -2.13978699
O      -7.95871735     4.37517192    -6.06732320    -0.02015359     0.00226829    -0.21936283
O      -3.96182167     0.00685971    -2.03972612     1.06292246    -0.51323753     0.27441864
O      -4.20949479     0.12226166    -6.00403275     1.55372341    -0.97009612     0.36332685
O     -11.64013794     8.67866288    -5.83618080     0.19204927     0.02607438    -0.70972186
O      -7.70423855     0.05249415    -9.88395372     1.06361962    -0.32851282    -0.40036900
O      -2.10610825     4.19277097    -4.09409880     1.54260434    -0.11723093     0.07724229
O      -1.95837954     4.26379410    -0.09554245     0.76169918     0.09287443    -0.12493016
O      -5.96152195     4.17083969    -4.05282278     0.12694475     0.36295434    -0.03522679
O      -5.89062876     4.36500056    -8.00007445     0.03555596    -0.58026231     0.08439421
O      -1.90521638     0.26037044    -4.02747466    -0.36601860    -0.33495483     0.96191921
O      -5.83993657     8.61767435    -7.85508775    -0.28648182    -0.44295991    -0.56523307
O      -5.84767047     0.46592280    -3.92387151    -0.29991523    -0.15529278     0.16832044
O      -5.81236847     0.58129674    -8.18051060    -0.20347292    -1.60971797     1.34752778
