# total energy = -630.89255381 eV

CRYSTAL
PRIMVEC
        0.00285542     0.02004370    -7.95977623
       -7.82940539     0.00763210    -3.98158109
       -3.91729101     8.74642787     0.01461334
PRIMCOORD
56 1
Li     -3.93696392     2.45569407    -1.87185362     0.28728353    -0.36241486    -0.25278700
Li     -3.94298736     2.51791428    -5.98188628     0.16410200    -0.60595032     0.44507108
Li     -7.96833731     2.27888866   -10.04030251     0.56004953    -0.00419449     0.26395163
Li     -7.84720325     2.10113767    -5.97529811     0.17230795     0.10229573     0.49742682
Li     -3.91623666     6.60626066    -1.95179047    -0.11467959    -0.48756510    -0.08276715
Li     -3.80956861     6.34136013    -5.92860427    -0.37985459     0.68354825     0.14948195
Li     -7.84808147     6.40338412    -9.97199551    -0.24000992     0.01926452     0.19132933
Li     -7.84941209     6.51991573    -5.92097511     0.14751460    -0.11896630     0.29876196
Ti     -1.93162874     2.19458950    -4.05754356     0.09720309     1.43640936     0.58775682
Ti     -5.84348122     6.79818613    -7.87614736     0.46649717    -0.05788013     0.33410554
Ti     -7.76322634     4.35413363    -7.71130390    -0.31967474    -0.01262220    -1.16812498
Ti     -7.79467717     4.25394448    -3.81528267     0.37088834     0.25514107     0.27211940
Ti     -3.90160284     4.28741171    -7.73580585     0.91402750     1.24470603     0.23630371
Ti     -3.94052315     4.38090542    -3.72097230     0.00051078     1.75709314    -0.45270097
Ti     -5.99694038     8.66996977    -2.17665675    -0.64821671     1.60586437     0.62890785
Ni     -5.82124478     2.34128221    -7.91982222    -0.70096367    -0.08073788     0.04577466
Ni     -5.77174446     2.33282407    -4.11241180    -1.81060694    -0.79310542     2.01628522
Ni     -9.83800546     6.56594317    -7.92244306     0.32769149    -0.18951637     0.22168253
Ni     -9.76553993     6.31284667    -4.03025046     0.00142191    -0.55800266     0.35491108
Ni     -1.98531793     2.22482512    -8.05292068     0.72053594     0.03632065     0.78778277
Ni     -5.92525749     6.69787964    -3.90454827     0.71890336    -0.97467118    -0.66175214
Ni     -6.01634980     8.74867392    -5.89359915     1.09596003     0.22945416    -0.31509029
Mo     -5.99211298     0.10630106   -10.15190092    -0.91032130    -1.19824793    -0.19773019
Mo     -9.82824757     8.65907974    -6.31162269     1.44162869    -0.66486196     2.03197907
O      -2.01918195     1.87887987    -1.99426738     0.44872902     0.23389098    -0.42657294
O      -2.00369494     1.86485912    -5.92350146    -0.48188315    -0.02920815    -0.94934107
O      -5.88810499     6.83037546    -1.94723528     0.69316948    -1.62167545     0.05816285
O      -5.77187581     6.89615709    -5.82577794    -1.13574253    -0.00284178    -0.64089976
O      -5.73954067     1.97808701    -9.88810254    -0.21725092     0.91189507    -0.47631534
O      -5.83493026     2.11261318    -5.88459735    -0.16305852    -1.14434387    -2.33507409
O      -9.82585957     6.91484868    -9.90009473     0.64484728     0.50189960     0.24740203
O      -9.81281569     6.70480609    -5.92455888     0.05003488     1.15480812    -0.81223156
O      -3.93885807     2.49311455    -4.03063795     0.98684745    -0.77710879     0.29135145
O      -3.87976323     2.32992719    -7.89611233    -0.16549948     0.97986495    -0.11683550
O      -7.90023107     2.33219119    -3.97785772     0.59562441    -0.07359736    -0.55553042
O      -7.80318862     2.34238512    -7.95659748    -0.29992949     0.61008447    -0.13626761
O      -3.90077083     6.41825530    -3.99504542    -0.05601505    -0.20547346     0.78077309
O      -3.92517072     6.29368509    -8.01895921    -0.42735774     0.41261112     0.72698076
O      -7.82903766     6.19165357    -3.98686502    -0.23546143     1.57332666    -0.26138746
O      -7.77928208     6.31744674    -7.90938068     0.16978837     0.09289646    -0.05277669
O      -3.92672165     4.47217101    -1.96560968     0.24398712    -0.39495406     0.15935222
O      -3.74674644     4.55692781    -5.96679132    -0.30497941    -1.27767263    -0.91486233
O      -7.98755154     4.38404454   -10.03617066     0.53605154    -0.24891655     1.25916176
O      -7.82900331     4.37047153    -6.00085016    -0.37415154    -0.04539344     0.66260372
O      -7.73827527     8.62309740    -9.87765664    -1.82268676     0.37822408    -0.46789068
O      -7.99661879     8.69631361    -5.93081444    -1.74935103    -0.16202029    -0.34435841
O      -7.67482049     0.01965040    -5.78934606     0.42801478    -0.25628081    -1.07551912
O      -7.76459751     0.08944785   -10.11097434     0.95902635    -0.01454743     0.81398110
O      -1.96235758     4.12845518    -4.10242333     0.38792870    -0.15315428     0.80917196
O      -9.72698073     4.24776022    -4.12745631    -1.50949020    -0.05912144    -0.24854156
O      -5.84924319     4.23306268    -4.01045654     0.35255685    -0.17562111    -0.30707595
O      -5.80929956     4.29962160    -7.85798486    -0.62564279    -0.28659753    -0.58207951
O      -1.94367244     0.25746608    -4.04240565    -0.06113631    -0.68074475     0.16393115
O      -5.86766363     8.60506033    -7.82907180    -0.20547065    -0.32193401    -0.24994152
O      -5.87799520     0.42849862    -3.92969966     0.99123546    -0.15606865    -0.84073912
O      -5.90279374     0.52388551    -8.04010431     0.09084095    -0.40476528    -0.23835678
