# total energy = -630.34013537 eV

CRYSTAL
PRIMVEC
        0.00285542     0.02004370    -7.95977623
       -7.82940539     0.00763210    -3.98158109
       -3.91729101     8.74642787     0.01461334
PRIMCOORD
56 1
Li     -3.88060575     2.11844290    -2.06650052    -0.15069386     0.36690893     0.43834857
Li     -3.99402393     2.17510748    -5.95705973     0.09882534     0.07894774    -0.28252038
Li     -7.80939325     2.17208088   -10.07934972     0.05618661    -0.02086895     0.24101234
Li     -7.76994215     1.91752896    -5.94288431    -0.29091957     0.47299699     0.15296068
Li     -4.07498130     6.40049491    -1.81546263     0.69364879    -0.02264483    -0.35864341
Li     -3.85333346     6.17784132    -5.67323322    -0.45536417     0.94435479    -0.61886714
Li     -7.81703331     6.38458951    -9.79876573    -0.15908500     0.25664120    -0.25498092
Li     -7.79499335     6.52305982    -5.75261977    -0.35332058     0.02989852    -0.25173748
Ti     -1.91835657     2.34122831    -4.06496419     0.51572876    -0.52437299     0.15739694
Ti     -5.89498451     6.85430821    -7.77698485     0.20697691     1.83524058    -0.22830431
Ti     -7.69553940     4.39017028    -7.64519133    -0.69890502    -0.45647074    -2.97178335
Ti     -7.66428684     4.34910498    -3.68294098    -1.47506914     0.40151355    -1.25596690
Ti     -3.83843425     4.40203913    -7.67490554    -0.12947963    -0.42396099     0.65884433
Ti     -4.04381200     4.44399676    -3.70970013     1.60640959    -0.71689044     1.23001794
Ti     -6.04721071     8.73638086    -2.13011857     0.19670213     1.10805983     0.19034993
Ni     -5.93447151     2.36250622    -8.07468160     2.33497767    -2.04780979     0.34399406
Ni     -5.76588430     2.24833506    -4.13213853    -0.84156608    -1.11388454     0.00143394
Ni     -9.82793108     6.46838813    -7.83851339     0.29359812    -0.03000316     0.67192301
Ni     -9.73445654     6.36412120    -3.96544595    -0.62177434     0.15628190    -0.03017432
Ni     -2.00366005     2.24912301    -7.98880608     0.64766275     0.82166051    -0.26711567
Ni     -5.93037992     6.83632117    -3.84606931     0.30403265    -0.63767039    -0.92787980
Ni     -2.11292732     0.06692488    -5.90938290     1.02240395     0.60941400    -0.34521505
Mo     -9.90338938     8.68658898   -10.21980429    -0.00116316     1.33875213    -1.53366872
Mo     -9.77335430     8.56339143    -6.40789781    -0.87539781     1.14751493     1.93311316
O      -1.94369631     1.96319330    -2.02260944    -0.02452483    -0.42260396     0.27593096
O      -1.94054008     1.96684783    -6.03418359    -0.58008695    -1.13205304     0.11391961
O      -5.85304530     6.87618251    -1.93957798    -0.25067965    -1.30616418     0.15222366
O      -5.94519459     6.92264896    -5.81368141     0.28842693     0.35797906     0.08038170
O      -5.75548819     1.89094018   -10.16368765    -0.54432455     0.91344100     0.78216541
O      -5.89532997     1.91910369    -6.00674694     0.42366919     0.74517244    -0.77183811
O      -9.86591728     6.88442151    -9.68654762     0.60690228    -0.67200041    -0.52945082
O      -9.82278093     6.69137507    -5.93447558     0.24410309    -0.05610621     0.19695473
O      -3.78455296     2.41942399    -4.03632736    -1.21918781    -0.26043415     0.11409304
O      -3.90571065     2.52922466    -7.91906514    -0.26629923    -0.79977449    -0.09580590
O      -7.91519912     2.49042298    -4.01909227     0.18425285    -1.16634671     0.03868767
O      -7.75778265     2.24921595    -8.02000822    -0.97646061     1.85305130    -0.01367366
O      -3.91406376     6.37026984    -3.81813811    -0.00470127    -0.02522728    -0.13895035
O      -4.04688713     6.45842852    -7.85813052     1.03597915    -1.37249629     0.18082300
O      -7.82618013     6.35472118    -3.88847589    -0.10992007    -0.43318902     0.09424572
O      -7.77574037     6.47277987    -7.81609287    -0.49011943    -1.72360095    -0.17916496
O      -3.99647831     4.24537898    -1.92375298     0.10180323     0.84747562    -1.10479203
O      -4.09199286     4.36939545    -5.84050299     0.62861916     0.24269850    -1.99349259
O      -7.85031647     4.36329585    -9.92448716    -0.08743951     0.23912800     1.34517428
O      -7.92327936     4.28305275    -5.98402523     0.18937774     0.59467563     2.02621627
O      -7.84230030     8.65051176    -2.13297160    -0.88417823     0.11457035    -0.10620538
O      -8.02938075     8.74023758    -5.90030818     0.65702951    -0.29524441    -0.28854664
O      -7.64977207     0.03443610    -6.10725562     0.56004986    -0.83561188    -0.02913040
O      -7.74723114     0.06270651   -10.15708694     0.37051405    -0.17607301     0.41655432
O      -1.98287939     4.18656496    -4.05837046     0.87593696     0.88369597     0.30971370
O      -1.93909827     4.31257194    -0.02698520    -0.40578661     0.64390296     0.35944283
O      -5.85174400     4.12955059    -4.03947500    -0.21023130    -0.10775052     0.02084897
O      -5.86303192     4.18453898    -8.13307325    -0.24055945     1.29920299     1.01243336
O      -1.77868479     0.26590270    -3.96023409    -0.50745881    -0.16420236    -0.74737512
O      -5.94861631     8.67249776    -8.04360859     0.10918041    -0.36403920     1.10475782
O      -5.80045876     0.37373119    -4.14131560    -0.42181941    -0.96624145     1.84274654
O      -5.63452330     0.47549753    -8.13185802    -1.05019039     0.30432434    -1.35663692
