# total energy = -630.70322459 eV

CRYSTAL
PRIMVEC
        0.00279571     0.02951795    -7.98606283
       -7.83802570     0.01298533    -3.99532603
       -3.92160916     8.71933433     0.00634407
PRIMCOORD
56 1
Li     -3.88814988     2.17674380    -1.95586058    -0.22927689    -0.13402797     0.24033345
Li     -3.94774001     2.15292407    -5.96208772    -0.19668778    -0.27017111    -0.38091257
Li     -7.79274480     2.22853414   -10.06298346     0.00022009     0.02028051     0.19460238
Li     -7.88804922     2.36777104    -5.92374886     0.42457231    -0.14873573     0.22235809
Li     -3.93515797     6.39896997    -1.91590098    -0.17461562     0.03547907     0.36923823
Li     -4.00627712     6.37416701    -5.88371438     0.21031728     0.01049782     0.57117437
Li     -7.91391562     6.62192641    -9.93741128     0.29500739    -0.32569738     0.28260725
Li     -7.99367560     6.46837410    -5.84217615     0.44145855     0.28885409    -0.04798439
Ti     -1.90237905     2.18786648    -4.02052114     0.03397772     0.82644632    -1.05442763
Ti     -5.90177750     6.78656246    -7.88473404    -0.75256139    -0.44763773    -0.66485205
Ti     -7.72622825     4.36188777    -7.73337531    -0.97354069     1.22906381    -1.13489819
Ti     -7.82955063     4.43558436    -3.71388105     1.65616618     0.49245083     0.19922207
Ti     -3.77905893     4.36914361    -7.61472363    -1.34730499     0.31018945    -1.24910744
Ti     -3.96614456     4.26670235    -3.65089914     0.54386718     1.70533600    -0.16887011
Ti     -6.02132891     8.66760515    -2.12380827     0.09050039    -1.44723555    -0.03517823
Ni     -5.84578397     2.48301064    -8.07624598     0.52328783    -1.75055418    -0.01410479
Ni     -5.87026115     2.25842683    -4.09755621    -0.34258440    -0.57533859    -0.34962567
Ni     -9.88824635     6.59279248    -7.84804946     0.24365486    -0.66597678    -0.47400439
Ni     -9.88284736     6.31493828    -3.91537770     0.87123742     1.33877698    -0.55502412
Ni     -1.93067718     2.33371937    -8.01572373     0.35268233    -0.62091768     0.40459547
Ni     -5.84856920     6.59865687    -4.05128750    -0.23834095    -0.37017781     1.84142769
Ni     -5.89582803     8.71420070    -5.92260725    -0.81205853    -0.67628253    -0.72470705
Mo     -9.91136821     8.64394481   -10.33749607     0.50039339     1.18107633     0.42709379
Mo     -9.87937792     8.69107204    -6.45707210     1.22584784    -0.33077180     1.74761596
O      -1.89887324     1.84879325    -2.08141982    -0.22591520     1.35730502     0.54828436
O      -2.02885969     1.79244297    -6.11695869     0.78565230     0.68048946     1.28102526
O      -5.90604339     6.71469451    -1.93908641     0.27999945     0.56467245    -0.10130339
O      -5.92992855     6.78612903    -5.87703225     0.27679428     0.91439230    -0.46582556
O      -5.81686139     1.94269044   -10.19774128     0.23965503     0.20655466     0.21247155
O      -6.01197622     2.04642841    -5.98347801     0.82536265    -0.61641492    -0.43617472
O      -9.91104898     6.86326210    -9.70849452     0.71290504     0.03388992    -0.70617989
O      -9.86360299     6.73146948    -6.04234764     0.24523557     0.87915014     0.70941311
O      -3.90468091     2.38645321    -4.08225285     0.46988964    -0.91205826     0.79569983
O      -3.84350588     2.50004198    -7.93672110    -0.46736773    -0.43111148    -0.43440808
O      -7.80092901     2.47389172    -3.93313777    -0.64973693    -0.26030114    -0.81540640
O      -7.76754111     2.40897724    -8.07492953    -0.75472220     0.43793987     0.25512030
O      -3.92161793     6.30883980    -3.76650537    -0.10682803    -0.12926822    -1.63005420
O      -3.97577800     6.43407506    -7.83700488     0.12364768    -0.62391266    -0.20408172
O      -7.89989846     6.45403220    -3.85372550    -0.13450105    -1.35771919    -0.82853421
O      -7.87592677     6.38503935    -7.95356150     0.17772244    -0.60577398     0.17353239
O      -3.84097461     4.42953395    -1.90838988    -0.16212079    -0.62491081     0.30009458
O      -3.75538329     4.37829353    -5.89430427    -0.06462501     0.51426869     0.71774695
O      -7.78876260     4.42105161    -9.95811048    -0.01934379     0.07616383     0.45471979
O      -7.77596035     4.50986971    -6.01996747    -0.64932334    -0.44749158     1.36103523
O      -7.82781089     8.64952460    -2.26807047    -1.11566110     0.20601689     0.51330476
O      -8.02574990     8.71944748    -6.00264111    -1.24034832    -0.06989961    -0.32853233
O     -11.66135854     8.65184424    -6.09117209     0.59247686     0.19603998    -0.03646427
O      -7.70610024     0.04264118   -10.06092952    -1.06142583     0.05649833    -0.26995385
O      -1.99278797     4.14802811    -3.96944098     1.12146554    -1.36968224     0.02440439
O      -9.71705977     4.40565451    -3.97543875    -0.46648417    -0.14200195    -0.33526604
O      -5.81097661     4.23005924    -4.09096325    -1.28373264     0.11519074     0.17536135
O      -5.81197284     4.36667087    -7.82711531     0.28578574    -0.03107174    -0.75377835
O      -1.69030479     0.18137659    -3.96410638    -0.72611855     0.21081848    -0.97950789
O      -6.14156525     8.56054664    -8.03997289     0.99245843     0.17220511     0.37477345
O      -5.95291423     0.07190054    -4.15694966     0.01649290     0.37119908     0.84636789
O      -5.79859003     0.51639706    -8.21640511    -0.05760717     1.17434652    -0.06010754
