# total energy = -631.08690580 eV

CRYSTAL
PRIMVEC
        0.00279571     0.02951795    -7.98606283
       -7.83802570     0.01298533    -3.99532603
       -3.92160916     8.71933433     0.00634407
PRIMCOORD
56 1
Li     -4.03422481     2.13092614    -1.80005130     0.09935292    -0.02113415    -0.44530451
Li     -3.88766628     2.35319851    -5.93981523    -0.08800364     0.13008156    -0.06807152
Li     -7.78266879     2.34370630   -10.05141653    -0.60814951    -0.38607696     0.37823709
Li     -7.89950785     2.37298408    -6.00657629     0.16955384     0.12451905     0.51430138
Li     -3.82974622     6.60063398    -1.97414715    -0.17516530    -0.32377604    -0.12279882
Li     -3.86131344     6.54291498    -5.87880534    -0.33116133    -0.03562531    -0.28984066
Li     -7.94446513     6.70681060   -10.17660613     0.40035948     0.05024387     1.10103640
Li     -7.84067641     6.63002868    -5.95021101     0.11723591    -0.39507161    -0.13395474
Ti     -2.06554535     2.36037432    -3.97219642     0.74694178     0.06925425    -0.32453713
Ti     -5.78817278     6.76816577    -7.98063063    -0.39165111     0.41912056     0.00394306
Ti     -7.67885769     4.41596240    -7.87280162    -0.29233951     0.57037372     1.06934922
Ti     -7.95473201     4.36061474    -3.85859158     0.78124037    -0.33789645     0.14713721
Ti     -3.81940512     4.37821523    -7.78847447    -1.14789515     0.28680146    -0.11428058
Ti     -4.14910116     4.42605043    -3.75260832    -0.53004659    -0.67275850     1.33859787
Ti     -1.68797102     0.02811792    -2.13166825    -1.03551730     0.49040797     1.17537517
Ni     -5.95280683     2.01807429    -7.92009732     0.91370243     0.42309757     0.56409244
Ni     -6.00361261     2.16842395    -3.97192382     0.89760866    -0.43851911     0.06777207
Ni     -9.84684438     6.35490405    -7.96105246     0.02345797     0.01140875    -0.58511313
Ni     -9.75595003     6.55804956    -3.99557024    -1.26242392     0.68862517    -1.54646360
Ni     -2.03195567     2.08827644    -7.99661346     0.81018575    -0.53754266     0.65443849
Ni     -5.96149187     6.66289993    -4.03750184     0.40046034     0.38075884     0.30730372
Ni     -1.91405360     0.07239354    -5.93541064     0.05922975     0.80022258     0.35415400
Mo     -9.88331041     8.73654504   -10.27617257     1.16553742     0.40052011     0.17240182
Mo     -5.71931860     0.08305182    -6.27582219     0.74457317    -0.75875068    -0.05192697
O      -2.03532071     1.98087511    -1.90000238     0.18202623    -0.76875523    -1.31946328
O      -2.04472080     1.94952798    -5.89887602     0.60530305    -0.55292810    -0.22302677
O      -6.05008283     6.88514432    -1.99703825     0.83804291    -0.07915102    -0.36834118
O      -5.79751490     6.96781291    -5.92721447    -0.75525577    -0.29402572     0.00852142
O      -5.97052362     1.93765132    -9.73343239     0.05444552    -0.41349630    -0.38098443
O      -5.74516738     1.94357303    -6.03033338    -1.34140947     0.42922214     0.07429272
O      -9.83658689     6.78300068   -10.20756253     0.07929738    -0.08193930     1.83035812
O      -9.76067475     6.89115666    -5.87659026    -0.29854676    -0.90640639     0.97194941
O      -3.94219574     2.39397044    -3.95015723    -0.59269791     0.21061641     0.13940152
O      -3.99274760     2.40030255    -7.90758378    -0.91859522     0.24774653     0.07285031
O      -7.86501353     2.34389938    -4.01011853    -0.40173302    -0.30149447    -0.44743057
O      -7.92910862     2.45875527    -7.92025027     0.54589717    -0.68401571    -0.36085040
O      -3.98220592     6.28845887    -4.01167021    -0.02759983     0.66526959     0.59828143
O      -3.94466915     6.60023861    -7.97546633     1.19386746    -1.12224822    -0.29722620
O      -7.90159173     6.31828934    -4.01386915     0.65564276    -0.24888012    -0.32905098
O      -7.94446992     6.30422652    -7.97565601    -0.16988201     0.36592392    -0.23044244
O      -4.11534288     4.48701799    -1.94005273     0.64965554     0.07203572    -1.03961130
O      -3.80490895     4.56899690    -6.03222716    -0.56042988    -0.51515649    -0.51231681
O      -7.72872387     4.17500802   -10.10486593    -0.39769757     1.07087897     0.82563202
O      -7.75616874     4.31692437    -6.07710336    -0.00090999     0.08150656    -0.27681666
O      -4.11189729     0.04789972    -9.98696151    -1.38171144     0.11239321    -0.35627449
O      -7.84628348     8.66596651    -5.99902704    -0.60690805     0.60122109    -0.22688578
O     -11.64247190     8.71149584    -6.04646845     0.78554682     0.38566127    -0.19778036
O      -7.78180887     0.03695327   -10.03235457     0.03119621     0.05790390     0.54395538
O      -2.04831663     4.32735760    -4.09608523     0.12547972    -0.19517901     0.62011896
O      -1.98605426     3.94122834    -8.08608543     0.06578365     0.32653982    -0.03469401
O      -5.97901821     3.94371782    -4.03764285     0.54072160     1.56256011    -0.44306469
O      -5.84264417     4.88993510    -7.99436579     0.38299291    -0.94845019     0.08944543
O      -1.90902145     0.24701361    -3.90766485    -0.45729900     0.79788207    -1.34038516
O      -5.78661590     8.74396202    -8.02628679    -0.67405478     0.21548803     0.09872738
O      -6.00556833     0.28948750    -4.08721602     0.49946301     0.15493017    -0.61883367
O      -9.80075438     8.20799000    -7.97924410    -0.20529632    -0.16891665    -0.86142003
