# total energy = -630.64045229 eV

CRYSTAL
PRIMVEC
        0.00285542     0.02004370    -7.95977623
       -7.82940539     0.00763210    -3.98158109
       -3.91729101     8.74642787     0.01461334
PRIMCOORD
56 1
Li     -3.85257986     2.30473256    -1.99767050    -0.08472726     0.08652397     0.18805351
Li     -3.98789947     1.83463834    -5.86085823     0.21131042     0.42931922    -0.60417874
Li     -7.55093006     2.32470835    -9.91849412    -0.81694933     0.43746792    -0.12990205
Li     -7.81762502     2.22440993    -5.85731831    -0.04727943    -0.03623372    -0.19132910
Li     -3.96584970     6.47843454    -1.82137763     0.12123063    -0.12065882    -0.68893132
Li     -3.82163516     6.46915366    -5.84390851    -0.21583975    -0.04935785     0.10569455
Li     -7.72954316     6.44243698    -9.90245777    -0.20987696     0.08520224    -0.19873741
Li     -7.87083931     6.43908611    -5.90040527    -0.01178734     0.31593860     0.23987430
Ti     -1.96842641     2.38465091    -4.13277120    -0.16297636    -1.24787219     0.28577459
Ti     -5.83854240     6.68692239    -7.84864534    -0.38919002     2.04038844    -0.55722016
Ti     -7.77985738     4.40230527    -7.73736806     0.35653127    -0.06588855    -0.81534458
Ti     -7.88264647     4.36977879    -3.80881698     0.88296917     0.27786465     0.54871384
Ti     -3.88204148     4.31567438    -7.63550533    -0.31265695    -1.32922345    -0.10044171
Ti     -4.03849431     4.47889525    -3.85276034    -0.79890993    -0.44519273     0.92189709
Ti     -2.08535756     0.07245442    -2.17765576     0.20937342    -0.34515287     0.61331430
Ni     -5.84726678     2.35505932    -8.00642069     0.68967582    -0.42774941     0.08141971
Ni     -5.84400920     2.15029101    -4.05574977    -0.06578631     1.48230690     0.36478542
Ni     -9.83311908     6.34580210    -7.83123537     0.56015418     0.48405263     0.08213841
Ni     -9.82414692     6.41619855    -3.98421556     0.73609717     0.05616518     0.97654325
Ni     -1.90076890     2.35853094    -7.91136638    -1.05232045    -0.83881815    -0.34942595
Ni     -5.93846841     6.60238041    -4.02130309     0.39411271     0.42809981     1.48161848
Ni     -5.90634328     8.73948103    -5.89199569    -0.41870372     0.94501756    -0.88032888
Mo     -9.88094203     8.69074840   -10.11827572     2.79983431    -0.11926582    -1.15209075
Mo     -9.84574456     8.68987319    -6.22211004    -0.00007918    -0.30787117    -1.25852796
O      -1.92961233     1.97135225    -2.03680948     0.34082894     0.85448819     0.70499815
O      -2.02234247     1.94142322    -6.06754202     0.55333461    -1.13927750     1.03839865
O      -5.82467956     6.92558757    -1.96674423    -0.17372001    -1.44194293     0.29664156
O      -5.93278810     6.83715907    -5.83755480     0.38758424     0.51326998    -0.74438043
O      -5.73695944     1.97165899    -9.98013777    -0.44898296    -0.28037933    -0.57143867
O      -5.89669882     1.88909281    -5.95656884    -0.11905793     1.84011622     0.07926315
O      -9.68063596     6.75204762    -9.92558549    -0.47363303     1.35253335     0.30457969
O      -9.84031755     6.85441694    -5.85276170     0.00063313    -1.78638884    -0.32454246
O      -3.88818703     2.44048461    -3.99996770     0.13884002    -0.29600493    -0.17538095
O      -3.88425267     2.27940321    -7.91308321     0.02820624     2.10964894    -0.10291273
O      -7.87107954     2.41540738    -3.82713651     0.47357055    -0.30201008    -1.15472967
O      -7.80657050     2.47885330    -7.97862133     0.21567729    -0.30964317    -0.30906654
O      -3.92702657     6.42351560    -3.88479978    -0.00985695    -0.08223562    -0.99143969
O      -3.97049220     6.29520359    -7.80500515     0.53573792     0.41375640    -0.40836167
O      -7.87389301     6.36727173    -3.94781025     0.15466646    -0.29814903    -0.45028977
O      -7.73921222     6.34107509    -7.85842879    -0.77886494     0.26809829    -0.63411846
O      -3.83046704     4.51457744    -2.10460433     0.02939123    -0.66968897     0.60489823
O      -3.73502941     4.37314532    -5.88242232    -0.35617954     0.49633385    -0.93771720
O      -7.83430174     4.44188492   -10.01091537     0.25317559     0.09174624     0.51753132
O      -7.84163548     4.43420173    -6.00588472    -0.18249081    -0.22776113     0.80650242
O      -7.78037501     8.73020720    -2.29357723    -2.09837246    -0.22033351     1.21544404
O      -8.06222603     8.69588552    -6.08539282     2.04627995    -0.21825734     0.72127786
O     -11.61019888     8.70408721    -6.06070203    -1.80766601     0.28693089     0.29064260
O     -11.58587382     8.63578586   -10.03334373    -1.11203415     0.10712021     0.34527523
O      -1.93404476     4.22872175    -4.16610024     0.43304321     1.05103760     0.73924451
O      -2.00920666     4.48369485    -0.11679312     0.71440799    -0.60452774     0.04489918
O      -5.88945916     4.18505408    -4.14553343    -0.61089886    -0.26401591     0.32755597
O      -5.79263904     4.41835060    -8.04406443    -0.54251812    -0.60232521     0.50460166
O      -1.90687503     0.36880821    -3.96913921     0.50938510    -0.33624584    -2.40409709
O      -5.83512557     8.57712202    -7.89355087     0.00138633    -1.38235191     0.68951751
O      -5.87845007     0.33301087    -4.12471342    -0.14074882    -0.74075164     2.34795269
O      -5.85596131     0.47924312    -8.05446017    -0.24607667     0.10759445    -1.26930206
