# total energy = -630.43683576 eV

CRYSTAL
PRIMVEC
        0.00279571     0.02951795    -7.98606283
       -7.83802570     0.01298533    -3.99532603
       -3.92160916     8.71933433     0.00634407
PRIMCOORD
56 1
Li     -3.94685751     2.19840887    -1.93091199     0.01628895     0.50600620     0.26474378
Li     -3.81879932     1.93583560    -6.06142314    -0.51693551     0.32136055     0.16562627
Li     -7.61998319     2.29978914    -9.94862312    -1.14724485     0.41722540    -0.06014387
Li     -8.04343807     2.40418524    -6.02482498     0.96638338    -0.02400038     0.48834429
Li     -3.94354739     6.26863184    -1.87735631     0.51098564     0.19866254    -0.86613569
Li     -3.93594941     6.45367289    -5.77163026     0.17945940     0.22667023    -0.89812329
Li     -7.78132025     6.42610163   -10.05423160    -0.60357587     0.02249802     0.11108975
Li     -8.10455744     6.62807150    -6.24516922     1.47485828    -0.10853694     1.10104464
Ti     -2.02172104     2.18185967    -4.07659477     0.92462495    -0.81049155    -0.27828204
Ti     -5.83431239     6.53249404    -7.99774025     0.46084445    -0.95903137     0.55567830
Ti     -7.82510324     4.36385248    -7.82728109     0.07678285    -0.40424099    -0.25791977
Ti     -7.84583551     4.35299913    -3.76305396    -0.27296842     0.16083575     0.32288219
Ti     -3.77804877     4.33668074    -7.68256375    -1.63529187     0.09006638    -0.27657555
Ti     -4.11026521     4.38493274    -3.80498741     0.98989835     0.57385596     1.06411737
Ti     -2.10096997     0.06923375    -1.85187657    -0.30879174     0.23728717    -1.63246030
Ni     -5.90577115     2.11023327    -7.77741072    -0.00713662     0.97970572    -1.41897745
Ni     -5.89441630     2.18130332    -4.09067592     0.02167057     0.04747245     0.45515917
Ni     -9.76758862     6.39035458    -8.09526386    -1.42261243    -0.55965356    -0.19453683
Ni     -9.74491441     6.56559508    -4.06240752    -0.29967685    -0.46409287    -0.61465604
Ni     -1.91884547     2.14295568    -7.92056776    -0.20120579     0.77127810    -0.70341747
Ni     -5.96521366     6.81243646    -3.98501050     0.28695580    -0.38626224    -0.84840881
Ni     -1.87586678     0.11937640    -6.07844135     0.01678805    -1.21358885     1.38413365
Mo     -5.93958583     0.15182405   -10.20650320    -0.66110439    -0.99397508    -0.72626977
Mo     -5.94595264     0.05665138    -6.34370264    -0.12003899    -0.48597064    -1.07371077
O      -1.96563350     1.99483287    -1.87102758    -0.34251153    -0.68799693    -0.52668967
O      -1.88299630     1.94854774    -6.09529693    -0.22147512    -0.14826629     0.85063632
O      -5.92686976     6.77396920    -1.93513250     0.34171114     0.56877521    -0.58299662
O      -5.82761244     7.00783677    -5.89094299    -0.43983564    -0.31301732    -0.94380208
O      -5.87367470     1.96150627    -9.62362188     0.60933147    -0.61961787    -0.52774817
O      -6.04277090     1.97787962    -6.00390605     0.78422474     0.07851075     0.45029549
O      -9.75261216     6.88074094   -10.16885847     0.08500327    -0.09961856     0.22413484
O      -9.84019284     6.70757418    -6.02939798    -0.56267607     0.58839188     0.74858327
O      -3.87583012     2.38723060    -4.04168643    -0.89510750    -0.30108117    -0.06719603
O      -3.88657834     2.43569449    -7.94270188    -0.24850241    -0.70522546     0.50759417
O      -7.83133816     2.38984484    -3.93933043    -0.14653032    -0.12250949    -0.35931617
O      -7.91544433     2.36521778    -8.05172020     0.72492630     0.23498652     0.95452801
O      -3.99453031     6.30689847    -3.97117053     0.23852344    -0.07404961     0.48725628
O      -3.86374012     6.38847469    -7.98771262    -1.22543776    -0.16328019     0.28276918
O      -7.83819335     6.29507307    -4.12139981     0.31664328     0.44218834     0.57324673
O      -7.87418718     6.29441646    -8.12439341     1.05239114     0.65346349     0.68375809
O      -3.85182920     4.29129766    -2.02397422    -0.35291438     0.03674599    -0.85728157
O      -3.79290921     4.40482501    -5.94479975    -0.41678549     0.01233632     0.57129368
O      -7.76487931     4.38292146    -9.96848770     0.21958910    -0.05142519    -1.00655256
O      -7.85046305     4.32887596    -6.09447884    -0.21861586    -0.01206343     0.97402646
O      -4.02999349     0.11598995    -9.97996630     1.28080180     0.11216794    -0.04413682
O      -8.07083488     8.71535255    -6.03760027     1.03275447     0.35437821    -0.30107260
O     -11.61618107     8.69017473    -6.05994646    -1.84968604     0.04344353     0.25829411
O     -11.64760630     8.75207312    -9.92183983     0.58262772     0.59306021    -0.79489221
O      -9.77280696     4.36750677    -8.13805492    -0.50659424    -0.22533414     0.33582462
O      -9.79327403     4.56367230   -11.91603326     1.56586350     0.29799709    -0.75064012
O      -5.94284162     4.12038879    -4.04391926     0.12416145    -0.56215995    -0.30097538
O      -5.84321362     4.49292600    -7.88416320     0.49719477     1.97244452    -0.55304733
O      -1.93790445     0.27283355    -3.96542185    -0.34075847     1.02918874     0.31641263
O      -5.81344112     8.57885849    -8.03853150    -0.09462928    -0.61644250     0.98960792
O      -5.81544772     0.24967233    -4.13431745    -0.59846405    -0.16366128     1.88904309
O      -9.80463581     8.24646984    -8.14602529     0.12003795    -0.63373470     0.32902806
