# total energy = -630.88170631 eV

CRYSTAL
PRIMVEC
        0.00285542     0.02004370    -7.95977623
       -7.82940539     0.00763210    -3.98158109
       -3.91729101     8.74642787     0.01461334
PRIMCOORD
56 1
Li     -3.92268101     2.24234983    -1.83790119    -0.28899793     0.06305910    -0.03625787
Li     -3.94848396     2.35393181    -5.85946049     0.03344309    -0.14769531    -1.11384645
Li     -7.89553786     2.37012576    -9.94869208     0.27758817     0.04957543     0.30826794
Li     -7.83273491     2.33322963    -5.77605748     0.36335456     0.31905248    -0.61840522
Li     -3.78313479     6.19878306    -1.83341221    -0.09465231     0.18868279    -1.29217068
Li     -3.90390885     6.51853721    -5.79411796     0.22851680     0.10104261    -0.17103604
Li     -7.88584451     6.36990635    -9.81787497    -0.09776917     0.47454006    -0.45224309
Li     -7.75796565     6.28676198    -5.95241590    -0.15951056     0.32527911     0.29653283
Ti     -2.07293753     2.15332234    -3.93268807     1.18298916     0.05513109    -0.67109208
Ti     -5.90473922     6.69125035    -7.99094106     0.01016176     0.40784260     0.53528630
Ti     -7.93349115     4.40175153    -7.83508638    -0.32287571    -0.73156103     1.30848789
Ti     -7.96796948     4.50417611    -3.79565353    -0.34015639    -0.86443303     0.87429229
Ti     -3.98178152     4.42526489    -7.70044641     0.26168862    -1.34537666     0.59390911
Ti     -4.15913230     4.43182319    -3.88296278    -0.24776450     1.13121110     1.11930062
Ti     -5.54140062     8.63495777    -2.04318087     0.37050628     0.30577868     0.61432749
Ni     -5.92890768     2.34862764    -7.90837383     0.22195479    -0.12549808    -0.41748683
Ni     -5.86497124     2.06464178    -3.89442439    -0.96032439     0.12641797    -0.00809888
Ni     -9.78881650     6.72841258    -7.87521740    -0.06104692    -0.37217585    -1.64305354
Ni     -9.78874241     6.61720937    -3.86817200    -0.11027011    -1.04520073    -0.94094824
Ni     -1.81577724     2.05028767    -7.93802409    -1.43022280     0.18292065     0.32325205
Ni     -5.99156140     6.70360424    -4.06140867     1.01713392     0.38822385     1.41333636
Ni     -5.77867223     8.70910319    -6.05491969    -0.42305337    -0.82899782     0.65222367
Mo     -5.94960728     0.08420535   -10.27305877     2.24996090     0.50637547     0.19415350
Mo     -9.60494980     8.65823791    -6.21522365     0.41262374     0.63496872    -1.31065327
O      -1.96954458     1.86398390    -2.04573260     0.23317353    -0.06898227     0.87457558
O      -1.94056359     1.80058094    -6.06451898     0.13332204    -0.37543483     0.37281222
O      -5.87536572     6.78212144    -1.96921060    -0.63636233    -0.70243619     0.26885232
O      -5.82342938     6.79473762    -5.91581353    -0.17762983     0.82199740    -1.33609750
O      -5.92002175     1.95495016    -9.93274162    -0.20436119     1.25272491    -0.45012365
O      -5.93178611     1.81559943    -5.75892375     0.32841078     0.22348021     0.04114512
O      -9.79966063     6.90512873    -9.86113943    -0.36680553    -1.13096535     1.33025498
O      -9.73539147     6.74959888    -6.07702810     0.50150233    -0.22146001     1.50997253
O      -3.96892656     2.45117278    -4.03207706    -0.37895047    -1.42587424     0.76893976
O      -3.90728948     2.48485097    -7.89079014    -0.18632637     0.20506777    -0.12815961
O      -7.80707643     2.45101738    -3.86939606     0.24801181     0.13171422    -0.72389150
O      -7.85906597     2.38155514    -7.95556717    -0.01240245     0.67933499     0.26844018
O      -3.76883616     6.36645049    -3.87747480    -0.30423249    -0.40777317    -0.33118237
O      -3.96331063     6.34582048    -8.01491242    -0.37011986     0.48729805     1.02825470
O      -7.88859187     6.46592127    -3.81437195    -0.72039974    -0.31785322    -0.77109647
O      -7.85632739     6.45381644    -7.92614685     0.03342730    -0.93357027     0.03118084
O      -4.16673858     4.28813420    -2.11036934     0.85160494    -0.21448222     0.24019694
O      -3.84844581     4.33749461    -5.90860802    -0.46800745     0.38549694    -1.06578952
O      -7.87731431     4.36053421    -9.93672481     0.03987141     0.32242944    -0.48666960
O      -7.81574673     4.35972539    -6.00129481    -0.63491280    -0.17303704    -0.87128164
O      -4.21265200     0.04522261    -9.92907836     1.10143196     0.07031411     0.26420774
O      -7.81505709     8.68518218    -6.16451860    -0.14251107     0.04602533     0.42937892
O     -11.58485503     8.49309066    -6.10617000    -0.34078859     0.71601365     0.97608637
O     -11.64007939     8.66753742   -10.05496448    -2.59647031     0.25553973     0.27030001
O      -2.01640451     3.97425317    -4.15141492     0.15987622     0.50945459     0.69391548
O      -9.87912739     4.71467214    -4.08510968     0.48123433     0.07973799     0.28350233
O      -6.04488090     4.86811224    -4.09260217     0.70358011    -0.26195931    -0.24177706
O      -5.97056603     4.45821288    -7.94468856     1.12780884    -0.06358068    -0.15228640
O      -5.86403792     8.69259000    -3.82357189    -0.80480325     0.41607389    -2.36915680
O      -5.90497564     8.57045536    -8.05239531     0.36229417    -0.71604379    -0.19622871
O      -9.67130609     8.46718891    -4.11333717    -0.54432391    -0.05318774    -0.60545378
O      -6.00130985     0.50452662    -7.96748636     0.43096364     0.11624594     0.42274392
