# total energy = -630.93299175 eV

CRYSTAL
PRIMVEC
        0.00285542     0.02004370    -7.95977623
       -7.82940539     0.00763210    -3.98158109
       -3.91729101     8.74642787     0.01461334
PRIMCOORD
56 1
Li     -4.02926863     2.19198600    -1.94444913     0.50728605     0.39950319    -0.11649599
Li     -4.04864412     2.12698351    -6.01638349     0.48112850     0.05501553     0.05802264
Li     -7.76485206     2.46069457    -9.91760021    -0.11521494    -0.00682166    -0.53134765
Li     -7.78093886     2.05822389    -6.06187848    -0.22829382     0.15686730     0.54677972
Li     -3.97923675     6.20499008    -1.89339934     0.35234501     0.72466403    -0.13253718
Li     -4.08536851     6.58031378    -5.72459541     0.87646137    -0.05646021    -0.89891420
Li     -7.75156297     6.38970357    -9.91761732    -0.57465904    -0.01752218    -0.06186436
Li     -7.73786319     6.47985138    -5.88274313    -0.92964682     0.22182221     0.27554047
Ti     -1.97461976     2.35762024    -4.05297743    -0.27183772    -1.67850249     0.41438859
Ti     -5.88422781     6.73202240    -7.92024870     0.86351558     1.04038743     0.04627183
Ti     -7.78511055     4.43515667    -7.76951152     0.91944617    -0.68073927    -0.48219109
Ti     -7.71945178     4.49831231    -3.82353877    -0.05184114    -0.92484798     0.45055768
Ti     -3.81465261     4.47147914    -7.75769334     0.33217818    -1.46841105     0.44451743
Ti     -3.93509246     4.48881764    -3.81797370    -0.49102950    -0.64053661    -0.03578946
Ti     -6.21083292     8.71110171    -2.10784985     1.66722478     0.60805686    -0.13015843
Ni     -5.83351203     2.43139492    -7.96236824     0.74888474    -0.27684733    -0.70142049
Ni     -5.93697130     2.17915857    -4.02792218     0.87354152     0.31688465     0.00843916
Ni     -9.71919655     6.45127316    -7.85088393    -0.07471835     0.51797940    -0.87042988
Ni     -9.79042907     6.37530664    -3.94006496     0.48609197     0.16537766    -0.02589686
Ni     -1.96099141     2.19216445    -7.94815871     0.73023420     0.64579707    -0.35564336
Ni     -5.73612502     6.59733553    -3.94777988    -1.41219400     0.78941709     0.23295173
Ni     -5.93794200     8.69354277    -5.91216193    -0.39806940    -0.09329039     0.13809589
Mo     -6.01239900     0.03590721   -10.07799847    -0.48714060    -0.83628143    -0.24229809
Mo     -9.83628573     8.59505104    -6.33979811     1.53294262    -0.70346465     0.31432839
O      -1.93250495     1.87226666    -2.04472451     0.24871177     0.18082289     0.32844702
O      -1.98831185     1.78950755    -5.97721912     0.15318370     0.30415343     0.15289249
O      -5.85519910     6.79384816    -1.94933973     0.37775192    -0.22404304    -0.29200005
O      -5.94728988     6.77208950    -5.89288816     0.94770764     0.71661344     0.05987417
O      -5.89150681     2.02009774   -10.05586246    -0.09556039     0.56089088     0.26060720
O      -5.88870228     1.81520881    -5.89673902     0.14591811     1.28403413    -0.29772849
O      -9.78100099     6.91100635    -9.77979425     0.38766794    -0.33667934    -0.11824058
O      -9.82748418     6.58676550    -6.03907878     0.36616161     1.69727443     1.45112873
O      -3.80803273     2.39572069    -3.91622401    -0.58497411     0.19138793    -0.86546350
O      -3.86619091     2.51238487    -8.02345031    -0.44501251    -0.31612774     0.40864212
O      -7.80635188     2.51278554    -3.96128159    -0.89789499    -1.07643042    -0.44860309
O      -7.72252922     2.48337090    -8.01571720    -1.00031403     0.03753313     0.34176169
O      -3.76211828     6.46753067    -3.89791177    -0.82734564    -1.22530725    -0.00097910
O      -3.90008602     6.41073387    -7.84182383    -0.31675814     0.16396647    -0.61969844
O      -7.85813534     6.43124227    -3.87861409     0.16373344    -0.39276269    -0.65932933
O      -7.74331440     6.38003692    -7.96106504    -0.70666887     0.11131333     0.17508056
O      -3.81502921     4.31746535    -2.07630750    -0.48960309     0.43730575     0.25511726
O      -4.10689867     4.33989547    -6.02683152     0.68500927     0.13295879     0.56700634
O      -7.82998936     4.43681830   -10.00859523    -0.26213246     0.20631886     0.28995267
O      -7.98553780     4.43089286    -6.04104797     0.64543640     0.18431585     0.47888064
O      -4.04843977     0.07773581    -9.95491927    -0.20456157    -0.19030518     0.28202706
O      -7.95309072     8.63265645    -6.01214278    -0.83463647    -0.10769847    -0.03795907
O     -11.56937657     8.75115064    -6.08219829    -0.39952865    -0.60820893     0.47160930
O     -11.67610545     8.73057277    -9.88291286    -1.13389708    -0.07582360    -0.19585005
O      -1.95851553     4.23925190    -4.08255731     0.40933195    -0.10308401    -0.61075029
O      -9.70232986     4.33322724    -4.03636319    -1.04242129     0.38583379     0.32346840
O      -5.82184177     4.12722445    -4.06782185    -0.34036773     0.14140115     0.04143039
O      -5.82831149     4.38100520    -8.20522674    -0.29035998     0.20410915     1.00946515
O      -1.99598980     0.15369886    -3.92265236     0.27883523     0.19563330    -0.89498354
O      -5.95708381     8.57580923    -7.97233745     0.40187619    -0.56921693     0.23195072
O      -5.83356728     0.30075695    -3.90721577    -0.57811145    -0.42232287    -0.53570077
O      -5.82686775     0.58057469    -8.08825859    -0.01064840    -0.07240160     0.05879997
