# total energy = -631.02375253 eV

CRYSTAL
PRIMVEC
        0.00279571     0.02951795    -7.98606283
       -7.83802570     0.01298533    -3.99532603
       -3.92160916     8.71933433     0.00634407
PRIMCOORD
56 1
Li     -4.03291654     2.47939990    -1.98969247     0.28165608    -0.51656379     0.26712657
Li     -3.90424987     2.07193239    -6.09622603    -0.63320179     0.16220896     0.74412540
Li     -7.85621700     2.59683503    -9.97285480     0.32688145    -0.66090960     0.28773028
Li     -7.80624688     1.92406909    -5.98049092    -0.26189016     0.45710808     0.17617484
Li     -3.95431001     6.41841829    -1.99370544    -0.03846656    -0.19113524     0.03484909
Li     -3.88367007     6.42148990    -5.86492266    -0.03486579    -0.05940777    -0.15593179
Li     -7.85883790     6.48418539   -10.10022041     0.51975072    -0.06931842     0.83069482
Li     -7.88116284     6.52879868    -5.90798574     0.20908284     0.09584839    -0.22345754
Ti     -1.93595395     2.17420031    -4.04956172     0.00539557     2.47130217     1.05549966
Ti     -5.79813551     6.76440215    -7.88950116    -0.28117710     0.70464928    -0.47219309
Ti     -7.67161212     4.40304171    -7.71237602    -1.10259990    -0.76640615    -0.78256913
Ti     -7.87609030     4.47417646    -3.75457107     0.64516661    -0.29945897    -0.32805328
Ti     -3.81629222     4.23990199    -7.67160014     0.05545498     1.35040886    -0.50024082
Ti     -4.07005941     4.38649677    -3.79405863     0.35831315     0.07426592     1.62483484
Ti     -2.31093405     0.06110682    -2.10461164     1.02771090    -1.06955387     1.14661920
Ni     -5.78511898     2.30987913    -8.08718092    -1.07932248    -0.01993417     0.31014696
Ni     -5.96629009     2.05095847    -3.98688097     0.19191048     0.19837877     0.02771174
Ni     -9.61877814     6.47336244    -7.91345200    -1.14603758    -0.04494585    -0.26288225
Ni     -9.80475756     6.56272654    -4.04768082    -0.38522143     0.31060994     0.02919004
Ni     -1.89608997     2.07178092    -7.92051188    -0.51105900     0.19684476    -0.36907090
Ni     -5.90844225     6.72486619    -3.99743296     0.00284667    -0.24429343    -0.16297092
Ni     -2.08763862     0.07809103    -5.98080105     0.39349480    -1.98624556    -0.33743035
Mo     -9.93228623     8.69079517   -10.26619600    -1.04502096     0.84867282     0.32195763
Mo     -9.84844262     8.67321959    -6.38219219     1.56909805    -0.06858314    -0.53977724
O      -2.00867589     1.91891637    -2.02280072     0.91456231     0.13740857     0.62421222
O      -1.97069025     1.85951042    -5.99874616     0.13577410     0.72674632    -0.17913632
O      -5.91034654     6.86494104    -1.95745660     0.20773230     0.13267628    -0.61790972
O      -5.94525880     6.86602295    -5.93517766     0.20269732     1.12589120     0.00595273
O      -5.92983344     1.98865293   -10.10738402    -0.12433638    -0.52604172    -0.06779649
O      -5.91215903     1.88112657    -5.85226978    -0.23313102    -0.07840108     0.01477767
O      -9.65579806     6.83859501    -9.84456262    -0.62114228     0.51582158     0.37734426
O      -9.86244981     6.77165748    -6.02029756     1.04360622    -0.16458402    -0.03035533
O      -3.89774345     2.45107627    -3.89638321    -0.27513957    -0.95243684    -0.83492806
O      -3.88988092     2.37332389    -7.96935913     0.71131671    -0.42113083    -0.33861904
O      -7.90558810     2.48571541    -3.87155437     0.51939766     0.08386996    -1.02265486
O      -7.78222169     2.41893924    -7.94849765     0.09245594    -0.24232172    -0.30330980
O      -3.62993110     6.24309833    -4.03698157    -0.09820682     0.41748105     0.62805106
O      -3.98820299     6.30707683    -7.89238411     0.74618120    -0.13535235     0.01747699
O      -7.91075334     6.54780132    -4.05975214    -0.02065714    -1.16149268     1.01796024
O      -7.69544067     6.38864306    -8.02529017    -0.53499847    -0.28256951     0.45083829
O      -4.05307861     4.31358223    -1.92769895     0.12176644     0.71547987    -2.11901160
O      -3.93664910     4.19475590    -5.90686478     0.37120352     0.26765870    -0.34495020
O      -7.78538390     4.42845843    -9.94209928    -0.26025296     0.88955681    -1.31446996
O      -7.82728183     4.59853235    -6.02039494    -0.12649042    -0.27449953     1.48621993
O      -4.06573568     0.16014607    -9.95701447    -0.28253787    -0.33623807    -0.16832658
O      -4.07297459     0.11507080    -6.09483560     0.62571997    -0.78832161    -0.04438619
O     -11.59732938     8.61456969    -6.18870136    -1.26695674     0.73955223     0.55073477
O     -11.69425702     8.65173429   -10.06429272     0.39228632     0.12407564     0.21451495
O      -1.87777477     4.09165367    -3.88676565    -0.45979252    -0.85047317    -0.82403623
O      -9.78840799     4.70456275    -4.02188713     0.17666188    -0.41739572     0.12535687
O      -5.92323176     4.85957985    -4.20443050    -0.13836944    -0.02560477     1.03135483
O      -5.78290677     4.24283494    -7.99302174     0.06232029    -0.10089275     0.27606984
O      -2.01512467     0.10155603    -3.94458246     0.00404685    -0.08906990    -0.80749946
O      -5.69741512     8.59676704    -7.98395807    -0.56518299     0.09699226    -0.58263320
O      -9.75366907     8.50368298    -4.08789130    -0.40612305    -0.09576858     0.20324960
O      -5.84460836     0.45072015    -8.15763206    -0.20109288     0.62556539    -0.28974325
