# total energy = -630.52397854 eV

CRYSTAL
PRIMVEC
        0.00285542     0.02004370    -7.95977623
       -7.82940539     0.00763210    -3.98158109
       -3.91729101     8.74642787     0.01461334
PRIMCOORD
56 1
Li     -3.90224640     2.26420169    -1.98050353    -0.21146943    -0.20489767     0.37636319
Li     -3.88193270     2.11130859    -5.88272283    -0.22201242     0.32649230    -0.83883678
Li     -7.80865980     2.02553312   -10.07136869    -0.12897282     0.43270348     0.35176515
Li     -7.79674298     2.24634657    -5.82203897    -0.36268938     0.47893318    -0.21952888
Li     -4.03290802     6.64865742    -1.94170489     0.34382941    -0.60535048    -0.42365861
Li     -4.06049501     6.64051037    -5.81387402     1.16149671    -0.24455120     0.04984662
Li     -7.97736401     6.67320008    -9.75958966     0.45006141    -0.18812641    -0.21845696
Li     -7.78121995     6.18073224    -5.78514158    -0.15836654     0.42096032    -0.13240153
Ti     -1.96000597     2.14719684    -3.96231803    -0.55335581     1.07212173    -0.68969727
Ti     -5.96073007     6.68895885    -7.90916442     0.48097619    -0.60480320    -0.07983512
Ti     -7.78592058     4.28784882    -7.70467360     0.11635741    -0.19400174     0.74252263
Ti     -7.82993495     4.51385229    -3.59822588     0.44678690    -1.31752289     1.59568057
Ti     -3.75974162     4.37401986    -7.68915575    -1.93239457    -0.93935790    -0.46556076
Ti     -4.07592756     4.43217801    -3.69107146     0.32040037     0.01168924    -1.28640078
Ti     -5.66630482     8.72930044    -2.01231563    -1.17484686     0.09185588    -0.50773077
Ni     -5.93144205     2.30937616    -8.07313353     0.78192675     0.88511430     0.23641548
Ni     -5.88679096     2.12261514    -4.09303472    -0.19571751     0.50745943     1.89645464
Ni     -9.87776141     6.40153616    -7.87615378     2.03597479     0.52101697     0.12732737
Ni     -9.92722990     6.44877007    -4.07609190     0.49055494    -0.30650077     0.24978063
Ni     -1.89848521     2.33263611    -7.98518936    -0.53171363    -0.47354183     0.64960556
Ni     -5.96219132     6.77869222    -3.97000783     0.05051195    -0.10722253     0.84888140
Ni     -5.84899651     8.75275004    -6.06861283     0.06545589     0.70802549     0.97213264
Mo     -9.80095838     8.75687878   -10.25126886     1.53297094     0.89595220     0.31569451
Mo     -9.68047538     8.70095420    -6.31331685     1.00933945     0.23614507    -0.83050122
O      -2.01335658     1.87927507    -2.00870038     0.71660597     0.29208806     0.24544997
O      -1.94403410     1.87753660    -6.02941419     0.01517250    -0.68936927    -0.46231358
O      -6.01484300     6.85398746    -1.94214531    -0.00354461     0.15108906    -0.38765496
O      -5.82829295     6.83486329    -5.95484903    -1.02884348     0.58487603    -0.09798924
O      -5.80097118     1.94851876   -10.08485341    -0.96671896     0.66611104    -0.46442834
O      -5.98946265     1.91615465    -5.88187889     0.80971298    -1.07904134    -0.65582428
O      -9.80386310     6.98059723    -9.70405606    -0.37466827    -0.54517803     0.59845360
O      -9.80819510     6.82112050    -6.06468826     0.35029772    -0.23203872     0.54198291
O      -3.99013467     2.49872095    -4.07053356    -0.03116223    -0.74093432     0.54519373
O      -3.88920217     2.41854562    -7.94084623     0.26770104     0.75529374     0.10018050
O      -7.78442939     2.56519454    -3.94587561    -0.21691383    -0.84137372     0.00114861
O      -7.94993860     2.31531720    -7.88592176     1.85870937    -0.49917990    -0.38844328
O      -3.80765941     6.40626463    -3.86590634    -1.18417821    -0.22965170    -0.58880026
O      -4.05574676     6.33226885    -8.08275799     0.16193916    -0.19068211     1.12912847
O      -8.04002185     6.38580506    -3.77955376    -0.04983373     0.99416216    -1.21594056
O      -7.86584873     6.23496280    -7.80182196     0.05105769     0.91676001    -0.28323726
O      -3.80707600     4.41427422    -1.99966688     0.15193442    -0.38782046     0.91121286
O      -3.80785610     4.43095518    -5.94607269    -0.03662626     0.52997942     0.37744852
O      -7.92940048     4.40504365    -9.75275061    -0.04239978     0.00585077    -2.05554996
O      -7.80799672     4.31693333    -5.89409355     0.30374798     0.04460629    -0.78342064
O      -3.97370639     0.22179425    -9.84434250    -2.10106234    -1.49449113    -1.13047246
O      -3.97898252     0.06741209    -6.00944091    -1.46521814    -0.24326108    -0.47028275
O     -11.66202975     8.59882865    -6.02452313    -0.64737500     0.76105456     0.20301037
O      -7.75436543     0.08121376   -10.03774992     0.49152714    -0.01987734     0.04711744
O      -1.88306499     4.03888913    -3.96281215    -1.61367935     0.22114111     0.05974569
O      -9.74423942     4.51011328    -4.12555568    -0.05558442     0.46134172     0.46365319
O      -5.91246240     4.90231265    -3.76797200    -0.56291003     0.15967585    -0.90669212
O      -5.85473922     4.24723668    -8.08765424     0.11511686    -0.14622632     0.55113262
O      -2.07177099     0.09171712    -4.06174603     0.42130359    -0.48574825     1.05164129
O      -5.92184987     8.52302408    -7.98018094     0.19359105     0.16268613    -0.13959045
O      -9.93409850     8.34267862    -4.06374305     0.67982951     0.33944245    -0.52360269
O      -5.94086184     0.47234349    -8.09144737     0.08795146     0.14298251     1.25125942
