# total energy = -630.29705431 eV

CRYSTAL
PRIMVEC
        0.00279571     0.02951795    -7.98606283
       -7.83802570     0.01298533    -3.99532603
       -3.92160916     8.71933433     0.00634407
PRIMCOORD
56 1
Li     -4.01624535     2.47762058    -1.79752889    -0.01309559    -0.88575715    -0.71574310
Li     -4.10983151     2.46169144    -5.82410535     0.57128341    -0.05698628    -1.04694761
Li     -7.87217602     2.11890961   -10.04724797     0.08309854     0.07315395     0.27464245
Li     -7.90317174     2.32156382    -5.97202540     0.23910894     0.05912527     0.05746485
Li     -4.05106323     6.70851781    -1.99298665     0.55473302    -0.25784822     0.10931239
Li     -3.99305488     6.38323230    -5.95367619     0.15291329     0.33058482     0.60267066
Li     -7.79988424     6.59292176   -10.23350814    -0.56873734    -0.27368684     1.07851618
Li     -7.98368171     6.22436939    -5.95112452     0.32241227     0.30098584     0.26487389
Ti     -1.97734310     1.97430219    -4.03231229     0.22103288     1.67505032    -0.47004720
Ti     -5.82510970     6.62123962    -7.91996434    -0.57706627    -0.33647940     0.14528906
Ti     -7.81888252     4.42969449    -7.77573156     0.00445432    -1.05162474    -1.46226116
Ti     -7.74419368     4.29469721    -3.79318615     0.37818047     0.16573825     1.33557043
Ti     -3.74657140     4.32075681    -7.76967437     0.06002215     0.34994989    -0.51340104
Ti     -3.91540777     4.42583289    -3.64899176    -1.04388434    -0.14118951     0.52192077
Ti     -1.75932674     0.15440690    -1.82764021    -0.99449202    -0.65630675    -0.34172561
Ni     -5.91543114     2.35008953    -7.97841651    -0.75590871    -1.01716686     0.82511007
Ni     -5.82345725     2.21865843    -4.23518446    -1.03010123     1.35543112     1.41851529
Ni     -9.78537295     6.38132389    -8.02999087    -1.10312344    -0.36145636    -0.68059027
Ni     -9.86705192     6.38286766    -3.89839727     1.54948624     0.73625659    -0.59351995
Ni     -1.94573528     2.09580224    -7.99783674    -0.64161370     0.90745985     0.55298991
Ni     -5.97224722     6.71202754    -3.97783420    -0.03526525    -0.28679145    -0.39698400
Ni     -2.02852730     0.11554774    -6.04160035     0.41667502    -0.70634197     0.71198353
Mo     -5.86719859     0.07442619   -10.31839358    -2.12700045    -0.62895706     0.49600085
Mo     -5.77790581     0.02342296    -6.34285419    -0.54908757    -0.22874611    -0.13984251
O      -1.96614362     2.02363379    -2.03218338    -0.51046172    -0.36131722     0.28464843
O      -2.03647537     1.91942887    -6.01575804     0.26645795     0.67798049    -0.17289919
O      -5.99669616     6.91136242    -1.88165487     0.76380886     0.30727495    -0.83725359
O      -5.96018312     7.01839801    -5.92157167    -0.03286136    -0.62965767    -0.49225880
O      -5.96131777     1.91806214    -9.74265349     0.49443433    -0.57200108    -0.84002140
O      -6.00409162     1.91798981    -6.11882748     0.06674335     0.81922965    -0.07696652
O      -9.79392221     6.67583282   -10.06106477    -0.55754944     1.16880362    -0.06618847
O      -9.78807738     6.93804002    -5.73234959    -0.46940246     0.16468343    -0.36740361
O      -3.88978766     2.50189204    -3.96983591     0.37146402    -0.94079291     0.01122959
O      -4.07726007     2.43700761    -7.95235916     0.66138983    -0.13645737     0.33038912
O      -7.91396784     2.34948147    -4.00340748     1.03391795    -0.40976933    -0.19169765
O      -7.85068056     2.38477595    -7.97135662    -0.65843528     0.41294455    -0.50991534
O      -4.15401262     6.28311402    -3.90598400     0.89438799     0.53837935    -0.16247541
O      -3.87063116     6.40554510    -7.95038880    -1.00838869     0.04303001    -0.02162765
O      -7.81101531     6.25679608    -4.09123457    -0.63694355     0.24750116     0.35652666
O      -7.89141539     6.30948079    -7.98363936     0.10244963     0.80439858     0.61992322
O      -4.02946214     4.26394875    -1.84739822    -0.24449789     1.22139895    -0.79839214
O      -4.18451726     4.36359632    -6.05920877     1.07300577     0.27019508     0.48204677
O      -7.90521042     4.48407061    -9.99472199     0.39911641    -0.59422695    -0.47209638
O      -7.88967212     4.23102809    -6.04275420    -0.03154983     0.70913388     0.39733111
O      -8.05490453     8.73597456   -10.06611110     0.68906583     0.00603552     0.29871072
O      -4.08743583     0.27035544    -6.15086895     1.41383596    -0.57523955     0.38440246
O      -7.81337600     0.11450664    -5.99551678    -0.18379145    -0.59962101     0.03274719
O      -7.81029415     0.05170762    -9.99393997     0.62214376    -0.16570146    -0.40972549
O      -2.07642958     4.45981844    -4.00520840     1.31845779     0.19138763     0.02500940
O      -9.67925578     4.14990833    -4.13113393    -1.67779972     0.00528909     0.72459649
O      -5.86019644     4.06152047    -4.09920880    -0.31167805    -0.00656820     0.25219639
O      -5.89029349     4.80871363    -7.85658218    -0.18861380    -0.74465318    -0.57593741
O      -2.14703724     0.22177208    -3.94009798     0.27682719    -0.90324864     0.41539476
O      -6.15404556     8.70796890    -7.96842690     1.13057730     0.04268728    -0.66549731
O      -5.86388330     0.43930024    -4.13219765    -0.07232907    -1.22318038     0.04855653
O      -9.86776458     8.20659009    -8.06557353     0.02988950    -0.03263076     0.00431002
