# total energy = -630.66670137 eV

CRYSTAL
PRIMVEC
        0.00279571     0.02951795    -7.98606283
       -7.83802570     0.01298533    -3.99532603
       -3.92160916     8.71933433     0.00634407
PRIMCOORD
56 1
Li     -3.79791725     2.23671629    -1.98113051    -0.75240473     0.42104285     0.41201117
Li     -3.66487748     2.25748043    -6.10898238    -1.10300608     0.17438477     0.64621486
Li     -7.75106912     2.38327814    -9.93720500     0.14617337     0.15684954    -0.26523350
Li     -7.65355958     2.08452654    -6.05617249    -0.60937385     0.09107247     1.06659681
Li     -3.92027910     6.79583336    -1.84483469     0.08324464    -0.12381214    -0.45837584
Li     -4.02655337     6.36154544    -5.93095174     0.46796076     0.40325042     0.45591365
Li     -7.98130523     6.47801148   -10.02716559     0.02257946    -0.40017992     0.06561525
Li     -7.84423961     6.65257744    -5.99406102    -0.03552966    -0.28840628     0.71128320
Ti     -1.92406300     2.06198022    -4.09387307    -0.36813092     0.77863876     0.83698888
Ti     -5.99207397     6.55752782    -8.04034133     0.86651573    -0.03962028    -0.23211972
Ti     -7.86033434     4.37344353    -7.73519253    -0.32922833    -0.41496819    -0.24616558
Ti     -8.02072509     4.24899905    -3.83523773     1.28138434     1.45284578    -0.42063924
Ti     -3.87756601     4.51236388    -7.69513105     0.24890142    -1.81142623    -1.00288370
Ti     -3.83410516     4.41928167    -3.68731897    -0.72680794     0.36704142    -0.60857521
Ti     -6.24100724     8.66452222    -2.08020983     1.49896370    -0.47408541     0.82976770
Ni     -5.76126215     2.43157972    -8.00854241     0.00985983     0.05617281    -0.24198799
Ni     -5.73446296     2.23350722    -4.06487639    -1.14712644     0.54682302     1.23621214
Ni     -9.90901033     6.62556185    -7.81836552     0.59896755     0.56080940    -0.88345907
Ni     -9.84040129     6.55124663    -3.96355632     1.33726382     0.14928561    -0.66747280
Ni     -1.95758424     1.98103518    -7.96578614     0.77002267     0.19252452    -0.29222551
Ni     -5.85814011     6.40847902    -3.97354077    -1.09939500     0.22862096     0.07413511
Ni     -5.90393738     8.63917735    -5.90616795     0.33147618    -0.80825780    -0.90451561
Mo     -6.07269525     0.08813786   -10.31634584    -0.70886185     0.35174408     1.03239689
Mo     -5.83516462     0.11781622    -6.35492985    -0.37302630    -0.31906730    -1.12342124
O      -1.98031940     1.87698416    -1.89794279     0.57793399    -0.86588198    -0.45154782
O      -1.84720455     1.71894717    -5.97532519    -0.23859366     1.38425861    -0.35649119
O      -5.91836123     6.64270202    -2.06053798     0.16186743     1.36202177     0.35275931
O      -5.84459174     6.83065825    -6.00752988    -0.64556914    -0.34477378     0.55693182
O      -5.84407406     2.05584188   -10.23233118     0.30604442    -0.97375559     1.02239821
O      -5.71895183     2.08110984    -5.80661470    -0.30980583    -1.28767003    -1.98531443
O      -9.87972910     7.01164023    -9.67302942    -0.11138107    -0.07190346    -0.31013265
O      -9.79254499     6.85262139    -6.00086661     0.05081514     0.06781761    -0.04711393
O      -3.86288104     2.35841692    -4.05823924     1.40273091    -0.13989863     0.31882706
O      -3.83812878     2.46819264    -7.91276853     0.14670124     0.30054049    -0.50229010
O      -7.75866195     2.37409019    -3.97549977    -0.30850096    -0.36092682    -0.58693808
O      -7.68826820     2.43763998    -7.86483748    -0.98600749     0.12622225    -1.08354906
O      -3.95207381     6.41610049    -3.93998447     0.80479767    -0.85365169     0.38292314
O      -3.90521981     6.41243817    -7.97506426    -0.99038375    -0.10610912     0.28329984
O      -7.86977213     6.38236682    -3.93234281     0.16651620    -0.47655968    -0.56687501
O      -7.87190347     6.32044590    -8.09238526    -0.46297869     0.26106983     0.97494702
O      -3.63862744     4.21859330    -1.98024186    -0.32736008     0.12060216     0.37036883
O      -3.91071431     4.38698455    -5.95054430     0.37455475     0.11379723     0.17211265
O      -7.88548567     4.42328957   -10.08535042     0.16087130    -0.39446808     1.08917195
O      -7.71789309     4.55371633    -6.00504463    -0.19306895    -0.17425149     0.31179853
O      -7.99736365     8.73771388   -10.00332507    -0.01101791     0.28452262    -0.32603581
O      -7.96643998     8.69667041    -6.09347291     0.91748298     0.01036807     0.24789440
O      -7.59962340     0.02534201    -5.94483345    -0.27472916     0.52966742    -0.44452693
O      -7.82639245     0.06019997   -10.15726205    -0.11630653     0.19465621     0.16773030
O      -1.89251379     4.09917538    -4.11184459     0.14237407    -1.03669133     0.21357056
O      -9.82081583     4.72862229    -4.00336239    -0.29165040    -0.40646924    -0.05154634
O      -5.75531848     4.51632599    -3.89562599    -0.84356277    -0.37655993    -0.39077028
O      -5.81029931     4.41645946    -8.10205406    -0.41961582     0.20126154     0.28585070
O      -1.88303890     0.08514073    -3.94515373    -0.30087135     0.86556547     0.14178039
O      -5.97526823     8.35781799    -8.06493540    -0.03347752     0.92832970    -0.55450616
O      -9.86050585     8.42911211    -4.07844157     0.78523436     0.00816604     0.01143099
O      -5.95405677     0.62545733    -8.18539582     0.52737760    -0.16528993     0.93999963
