# total energy = -630.43969012 eV

CRYSTAL
PRIMVEC
        0.00279571     0.02951795    -7.98606283
       -7.83802570     0.01298533    -3.99532603
       -3.92160916     8.71933433     0.00634407
PRIMCOORD
56 1
Li     -3.78513045     2.52272581    -1.98607360    -0.17668211    -1.64731129     0.52930328
Li     -3.85366806     1.99746013    -6.01034394    -0.51178091     0.10402083     0.08658369
Li     -7.82660839     2.41835703    -9.92600494     0.31483374    -0.00509010    -0.24797587
Li     -7.85448457     2.04865009    -5.92297526     0.28031683     0.13605595     0.00477417
Li     -4.00274630     6.30576604    -1.81611014    -0.08017606     0.13999478    -0.33577990
Li     -3.95352880     6.62888708    -5.84319883    -0.16890916    -0.40145453     0.00023955
Li     -8.04504316     6.41083771    -9.95395125     0.20163136     0.16782313     0.07700988
Li     -7.73691573     6.38348102    -5.89700755    -0.77805350     0.17714298     0.27254564
Ti     -2.02686576     2.14558381    -4.10846398     1.98525835     0.18958393     0.84925268
Ti     -5.90583604     6.69989862    -7.92079800     0.46310664     0.11502184    -0.16806015
Ti     -7.85116234     4.35252174    -7.71417298     0.60157929    -0.40622394     0.14223989
Ti     -7.70988128     4.37542010    -3.77957864    -0.97404568     0.31249478    -1.28301291
Ti     -3.84828996     4.30184913    -7.67768920     0.62961490     1.27426725     0.56624356
Ti     -3.96836508     4.40787130    -3.73976430     0.01461137     0.83720088    -1.30746560
Ti     -6.11517005     8.69785553    -2.15213818    -0.91776592    -0.02967809     0.40847396
Ni     -5.77491627     2.32653076    -8.00894643    -0.74525783     0.28368325     0.30284551
Ni     -5.86676272     2.15167255    -3.97089733     0.38133036    -0.04605986     0.26515951
Ni     -9.81446340     6.47732408    -7.85086962    -0.06788755     0.58687039    -0.97988885
Ni     -9.78467501     6.50385297    -4.17539889    -0.37590064    -2.04919341     1.00308258
Ni     -1.90530043     2.10977918    -7.92705640     0.15240177    -0.08249136    -0.35085472
Ni     -5.91066598     6.70525054    -3.87512825    -0.08542165    -0.26600828    -1.01920376
Ni     -5.99078414     8.73878203    -6.10322378     1.37323157    -0.93166215     0.49311661
Mo     -6.06114193     0.16133575   -10.28237682     0.46599721     0.01010607     0.44101446
Mo     -9.74906662     8.60270591    -6.32212260    -0.96058218     0.55278466    -0.90394194
O      -1.97648081     1.90270654    -2.07578929     0.60593014     0.16102142     0.48436938
O      -1.80715036     1.83371624    -6.04301437    -1.67559082     0.47957478    -0.49543680
O      -5.96317213     6.76156438    -1.92457832     0.50736018     0.03989038    -1.20013901
O      -6.00929636     6.84604529    -5.94826829     1.18733581     0.83152764    -0.30721400
O      -5.72156535     2.08827761   -10.01662902    -1.09743133    -0.64606608    -0.89329624
O      -5.81033442     1.93074191    -5.78548953    -0.07221724    -0.79652925    -1.13929871
O      -9.95134558     7.11840556    -9.60686769     0.73454846    -0.24975382    -0.95547087
O      -9.86551048     6.60223763    -6.09389220     1.17442853     1.53110672     1.81106965
O      -3.82014821     2.28584651    -4.08772913    -2.51727925     0.74073329     0.54127907
O      -3.85291765     2.38884945    -7.84566053     0.53736616     0.21326673    -0.70803285
O      -7.80890024     2.41687060    -3.93739740     0.20297643     0.18862128    -0.55033431
O      -7.85889847     2.45281420    -7.99674728     1.07634392    -0.32366358     0.20071492
O      -3.82078068     6.42589653    -3.73181083    -0.46997964    -1.20782530    -1.05272999
O      -4.05112233     6.43000176    -7.90048377     1.22061326    -1.15697128    -0.15976296
O      -7.90451176     6.43249226    -3.89971932     0.00688284    -0.53196472    -0.60397246
O      -7.77576585     6.29421468    -8.03383102    -1.58224166    -0.13875685     0.62708956
O      -4.03935932     4.24408891    -2.00058454     0.45320708     1.01605934     0.08996582
O      -3.74869020     4.46418335    -5.93673483    -0.47822219     0.05168154     0.32006769
O      -7.88439483     4.40511772   -10.04567277    -0.21174985     0.09439951     1.47000606
O      -7.95784143     4.50867420    -5.96592920     0.33409633    -0.48851920    -0.32641964
O      -3.98062872     0.11399392    -2.18199478    -0.56160329    -0.48669368     0.15186010
O      -7.86439865     8.68413658    -6.12382716    -1.02847888     0.04369282     0.11719668
O      -7.59290398     0.04764659    -6.04323352     0.39635309    -0.29062498    -0.29087199
O      -7.83999288     0.27478848   -10.20644296     0.50047018    -0.70972715     0.30206640
O      -1.98699386     4.06580694    -4.04596650     0.07339448     0.36786886     0.22519090
O      -9.78665214     4.65799483    -4.09037755    -0.25813196    -0.12731268     0.12054895
O      -5.85315812     4.80443240    -4.05679596     0.10518864     0.07760729     0.14840568
O      -5.81759768     4.31523115    -7.98848135    -0.59988881    -0.51470110     0.41939444
O      -1.86753879     0.04878258    -4.02429215    -0.00769315     0.07463267     0.14509238
O      -5.84321995     8.49977926    -8.20686003    -0.22594666     0.96998813     1.33401281
O      -9.85661561     8.30785602    -4.07252178     0.49325378     0.84126782     0.29140203
O      -5.82942635     0.44885209    -8.15787511     0.05021482     1.15880898     1.12887707
