# total energy = -630.44039762 eV

CRYSTAL
PRIMVEC
        0.00279571     0.02951795    -7.98606283
       -7.83802570     0.01298533    -3.99532603
       -3.92160916     8.71933433     0.00634407
PRIMCOORD
56 1
Li     -4.03424295     2.42229115    -1.87003779     0.47686469     0.17395520     0.15279410
Li     -4.11827569     2.27823998    -5.97642015     0.65860370     0.13969372     0.18898708
Li     -7.74956327     2.24389506    -9.84141478    -0.51307026    -0.31408994    -0.20220080
Li     -7.80413982     2.46953070    -6.00777588    -0.42611640    -0.01180242     0.50275500
Li     -3.83051269     6.49324334    -1.92104346     0.05689027    -0.30920017    -0.34239299
Li     -3.93080673     7.01910672    -5.85427883    -0.21657757    -0.29776501    -0.38757354
Li     -7.72401286     6.56502789   -10.01061210    -0.55314885     0.09544739    -0.21432366
Li     -7.93185975     6.15470688    -5.85858593     0.26706505     0.74572540    -0.80425700
Ti     -2.13435284     2.08441169    -3.95612469     0.88644215     0.31912561    -0.73520682
Ti     -5.89335186     6.61771432    -8.06712075     0.48541719    -0.11056784     1.45052342
Ti     -7.89403255     4.39694071    -7.92530962     0.12848585    -0.94148640     1.47652511
Ti     -7.81283854     4.37145352    -3.74377379    -2.00395867    -0.51156962    -1.07966729
Ti     -3.96441568     4.43943870    -7.60737513     0.84402798    -0.04422152     0.05749403
Ti     -4.06718446     4.42328427    -3.79369285     0.81689771     1.24604406     1.42820339
Ti     -1.68144764     0.02144018    -2.01123986     0.19269639    -0.09584880     0.02862241
Ni     -5.90670611     2.07836425    -7.80103895     0.19222651     0.56243106    -0.38438047
Ni     -5.95252818     2.28000551    -3.92762291    -0.65987217    -0.22964126    -0.49146160
Ni     -9.78116535     6.33275094    -8.18654637    -0.32871746     0.67829718     0.60215894
Ni     -9.73982472     6.57157362    -4.05289969    -1.77286564     0.20045315     1.24908956
Ni     -1.99496896     2.16345760    -7.94719092    -0.37329223     0.78475325     0.05676847
Ni     -5.92104718     6.73840767    -4.04156604     0.19525550    -0.26951661    -0.30285525
Ni     -2.03295187     0.14280864    -6.03569475     0.24437001     0.27151975     0.02827805
Mo     -5.76834089     0.07050261   -10.24448501    -1.10455263    -0.67396982    -0.67627522
Mo     -5.76875110     0.03032555    -6.33771145    -0.60190329    -0.26241040    -0.32085716
O      -1.94538911     1.91358075    -1.97001212    -0.36353031    -0.19194080    -0.03625557
O      -2.09435321     2.02568791    -6.00193087     0.41080041    -1.02457375     0.26620408
O      -5.76992824     6.69072830    -2.00680092    -0.53653342     1.14930526    -0.54456410
O      -5.94576442     7.01994061    -6.00564128     0.04420336    -0.14792729     0.37311600
O      -5.80287465     1.83407275    -9.65154633    -0.22746118     1.00519204     0.07016442
O      -5.98984508     1.91326912    -5.91883014     0.38362739     0.48831401    -0.62243086
O      -9.74742950     6.79735833   -10.12677382    -0.42061976     0.08499563    -0.27184679
O      -9.82183595     6.88995705    -5.88408987     0.76588451    -0.71151652     0.03575299
O      -3.99988741     2.33164030    -3.87297714    -0.22970403     0.62838008    -0.06655567
O      -3.98389752     2.43434627    -7.96886430    -0.57045024     0.15079412     0.74123180
O      -7.94556699     2.43392124    -4.02597895     1.06609492    -0.28912591     0.24794866
O      -7.93699978     2.38118041    -7.86910256     0.46699545     0.18006307    -1.07904692
O      -3.86932320     6.38999812    -4.07974576    -0.45088717    -1.19046624     0.41898884
O      -3.83783404     6.49051426    -7.88769231    -0.77007545    -1.62888164    -0.21372674
O      -7.96536636     6.29582288    -4.04618424     1.63341504     0.07665683     0.46245657
O      -7.78198090     6.37953141    -8.03907348    -0.99761636    -0.16862832    -0.37740334
O      -3.96833637     4.37927591    -1.97413877    -0.17084341     0.02570463    -1.40020376
O      -4.18212163     4.24340178    -5.84954724     0.17414516    -0.13488426    -1.28885400
O      -7.89971200     4.29208224   -10.01223127     0.10326272     0.21527198     2.06048264
O      -7.90460034     4.35610673    -6.13160703    -0.23050959     0.14436633    -0.07120993
O      -7.89696085     8.61115970   -10.00984277    -0.34528729     0.46681536    -0.37537811
O      -4.04044906     0.14382985    -6.21005043     2.01408845     0.21946267     0.72133605
O     -11.59403160     8.68246759    -6.22875947    -2.29642150     0.17080611     0.39898441
O      -7.71441658     0.18302458    -9.92765317     0.56825202    -0.49838776    -0.20795661
O      -2.03905744     4.27061072    -4.17220648    -0.34691360     0.63672459     0.28767552
O      -2.03164020     4.09200952    -7.94831061    -0.49759753     0.43003800    -0.02499152
O      -5.99746176     4.28903663    -3.89778384     1.64868798    -0.79859342    -0.68065325
O      -5.95887086     4.63372148    -7.96259665     1.61037097     0.67624022    -0.46268206
O      -2.17408073     0.20168334    -3.95764268     0.49202357     0.42144986    -0.00173730
O      -5.78390838     8.62087763    -8.09678537    -0.08199600     0.06217499    -0.15787329
O      -5.99687724     0.32558149    -4.09132980     0.71595222     0.16726790     0.66994357
O      -9.70673035     8.24918280    -8.10777773    -0.32123556    -1.10959011    -0.15284743
