# total energy = -631.35286049 eV

CRYSTAL
PRIMVEC
        0.00285542     0.02004370    -7.95977623
       -7.82940539     0.00763210    -3.98158109
       -3.91729101     8.74642787     0.01461334
PRIMCOORD
56 1
Li     -3.94607142     2.39933804    -1.95418132     0.19019568     0.01853017     0.27810697
Li     -3.97486845     2.18625934    -5.88698727     0.08726838     0.11432518    -0.45392602
Li     -7.75552101     2.22790115    -9.86848340    -0.12407321     0.42039755    -0.28184314
Li     -7.89704007     2.32494222    -5.85812038     0.38888580    -0.37819895    -0.32633596
Li     -3.88375999     6.41818107    -2.04854525    -0.10677236     0.15178729     0.57258135
Li     -3.98951639     6.68273168    -5.93602679     0.22069907    -0.39188527     0.59725205
Li     -8.01912203     6.48537486    -9.86809484     0.55931539    -0.04341688    -0.36766712
Li     -7.77081587     6.43195407    -5.73943871    -0.31009970     0.27403532    -0.62427356
Ti     -1.93347997     2.13331481    -4.05070155     0.57871249     0.31591744     0.13984321
Ti     -5.80829694     6.65979108    -7.94096149    -0.33332027    -0.77590786    -0.74832604
Ti     -7.85231132     4.43675636    -7.68502083     0.33606094    -0.90842076    -0.75087715
Ti     -7.87090665     4.32590730    -3.69377718     0.61177733     0.71186718     0.36434549
Ti     -3.75273066     4.39067631    -7.64582521    -1.02655727    -0.42081875    -1.12492607
Ti     -3.90889124     4.34146104    -3.80226699    -0.64461102     0.81217822     0.80469001
Ti     -2.21081536     0.01810310    -2.11447990     0.64734902    -1.38342862     0.24840642
Ni     -5.85996587     2.42488282    -7.95536701     0.68629293     1.79455366     0.31707440
Ni     -5.90718144     2.23911640    -4.04197021    -0.21072044    -0.11008884     1.59804595
Ni     -9.82072130     6.62973527    -7.86484305     0.04872275     0.00682488    -0.54426602
Ni     -9.81868553     6.45975061    -4.02072023     0.48959363     0.08069470    -0.66937297
Ni     -1.95843799     2.10490261    -7.93173973     0.63923033    -0.02014306    -0.24478574
Ni     -5.87104861     6.47226326    -3.95296097     0.22399075     0.48175637     0.33873248
Ni     -2.01889827     0.07221824    -6.03229436    -0.14550281    -0.84404252     0.30218683
Mo     -6.03413530     0.06195882   -10.24653333     1.41390773     0.84201170    -0.63185194
Mo     -9.71394028     8.69934397    -6.31117764    -1.88720467     0.13402138     0.44299000
O      -1.98971950     1.90679701    -2.06250851     0.02451216     0.33284058     0.51467357
O      -1.97178602     1.95279101    -6.04922113     0.04181014    -0.87719548     0.47594430
O      -5.76644538     6.81236287    -1.95681124    -0.93285400     0.37878075    -0.49639164
O      -5.91074155     6.91936141    -5.96711504     0.44248242     0.25171930     0.04958598
O      -5.79614869     1.98039194    -9.98085518    -0.55709843    -0.14994793    -1.22477086
O      -5.86225921     1.95327301    -5.81304416     0.30647526    -0.31557431    -1.19846904
O      -9.86901122     6.97453403    -9.73259175     0.20855645    -0.05748077     0.26202991
O      -9.80353710     6.74856476    -6.05345385     0.75172883     0.28702837     0.69507986
O      -4.03577575     2.37122293    -4.00452527     1.33441393     0.07263495     0.31225490
O      -3.79196087     2.46728312    -7.85222394    -1.05181174     0.21030122    -0.64361732
O      -7.82371401     2.39916528    -3.96925309    -0.27222017    -0.47913443     0.31742218
O      -7.78072991     2.42763218    -7.91518738    -0.83985102    -0.19470635    -0.30736664
O      -3.84086967     6.37269382    -3.89193225    -0.59663371    -0.29009522    -1.11696324
O      -3.92874636     6.35483221    -7.98315952     0.38508562     0.50676387     0.76885759
O      -7.84582387     6.35262682    -3.91573779    -0.18306035    -0.65638842     0.42973591
O      -7.86570718     6.28594121    -8.00622100    -0.16165457     1.08181080     0.67570237
O      -3.79532159     4.47881193    -2.03176285    -0.42400109    -0.85547998    -0.60978224
O      -3.80854023     4.43323309    -5.92142703    -0.11293914     0.46340713     0.93041968
O      -7.79585068     4.29787930    -9.88314938    -0.44482318     0.01455550    -0.45620567
O      -7.96565195     4.25777959    -5.95737414     0.44719973     0.57886530     0.25941036
O      -7.91310947     8.74069133    -9.96321469    -0.61926288     0.00579951    -0.28636958
O      -7.85890805     8.57557435    -5.95032722    -1.46022570     0.95803658    -0.28613050
O     -11.54000017     8.75773495    -5.95163498     1.21407894    -0.12385810    -0.81300608
O      -7.74842239     0.12941509    -9.88293712    -0.69494239     0.03614151    -0.47326451
O      -1.98465071     4.05832626    -4.10114773     0.40328097    -0.39878042     0.29878800
O      -9.76064194     4.54858848    -4.14721191     0.24787291     0.56460072     0.86504080
O      -5.92643490     4.48194995    -4.00183685     0.57390649     0.24972756    -0.24708595
O      -5.79643679     4.55557264    -7.91699383    -0.69664245    -1.03033110     0.17966403
O      -1.90077801     0.13167663    -4.02191695    -0.28673617     0.75899483     0.23323831
O      -5.92661246     8.51527169    -8.01809225     0.28945948     0.56197065     0.14789516
O      -9.89181610     8.38010863    -4.06868075     0.38523824     0.11865950     1.49595149
O      -5.75064585     0.69616413    -8.03398644    -0.10015556    -2.20582311     0.06583504
