# total energy = -630.44844512 eV

CRYSTAL
PRIMVEC
        0.00285542     0.02004370    -7.95977623
       -7.82940539     0.00763210    -3.98158109
       -3.91729101     8.74642787     0.01461334
PRIMCOORD
56 1
Li     -3.93014917     2.30728533    -1.92834204    -0.01929640    -0.04432335    -0.16652954
Li     -3.95702868     1.89565476    -5.94399191     0.22722268     0.30386142    -0.51659285
Li     -7.92999812     2.58745897   -10.06862534     0.61073319    -0.59482902     0.15041894
Li     -7.84993347     2.31962839    -5.96170283     0.48266243     0.18820158     0.08252152
Li     -4.10974815     6.37190888    -2.06117116     1.04992425     0.22436938     0.76480101
Li     -3.93125976     6.27911659    -5.96541178     0.54907598     0.18411774     1.11795960
Li     -7.82158423     6.51355325   -10.00429190    -0.04673336     0.13091477     0.43361613
Li     -7.87448320     6.71849670    -5.95418422     0.21533099    -0.34276133     0.32935987
Ti     -1.90310651     2.25241104    -4.10942840    -0.77050383     0.28696295     0.02604537
Ti     -5.82773939     6.81962917    -7.82899680    -0.84517899    -0.38824721    -0.72266379
Ti     -7.71579105     4.41499413    -7.84257702    -1.97117930     0.58943642     1.40448883
Ti     -7.81292791     4.45273014    -3.79902488     0.29132044    -2.01943753    -0.23617311
Ti     -4.03292068     4.29705079    -7.69370873     1.73609013    -0.37497752     0.18113956
Ti     -3.95457417     4.40608377    -3.74642185    -0.35134610    -0.17285310     0.45297688
Ti     -2.16881930     0.04923788    -2.11154101    -1.13925633    -1.43520911    -0.66498493
Ni     -5.91991147     2.48646181    -8.10202529     0.95808445    -1.38376653     0.50187258
Ni     -5.83083226     2.17437854    -4.08074767    -0.60478825     0.35939305    -0.02381551
Ni     -9.72291552     6.51281431    -7.81719956    -1.32623988    -0.23884165    -0.47266165
Ni     -9.81449578     6.32743535    -4.08091807    -0.67873634    -0.57202207     0.23254946
Ni     -1.88282330     2.14306335    -8.02449808    -0.25907264     0.94676319     0.39555929
Ni     -5.89289179     6.59250989    -3.89476386     0.45595241     0.24401422    -0.47437350
Ni     -5.74534633     8.74050323    -5.83431918    -1.15194223    -0.49266917    -0.33653403
Mo     -6.06542567     0.03475740   -10.02710890     1.28536148    -1.56783425    -0.80403350
Mo     -9.84543269     8.69895517    -6.24648832     0.01996507    -0.41093495    -0.84707329
O      -1.90987145     1.93431184    -1.99977331    -0.09598620     0.07162641    -0.46089626
O      -1.90804030     1.82291046    -6.02252158    -0.07682001     0.48539945    -0.02715945
O      -5.85050968     6.78168971    -2.03628880    -1.13503662     0.63222971     0.97168594
O      -5.69894161     6.93457315    -5.68907604    -1.14746275    -0.61478485    -2.24389814
O      -5.88207251     1.98820890   -10.10039371     0.14494575     0.77556690     0.33219401
O      -5.87244755     1.93896012    -6.02054803    -0.34424605     0.17388534     0.77234752
O      -9.71988544     6.85058504    -9.79149179    -0.73426525     0.97890422    -0.22809889
O      -9.90219411     6.69064315    -5.94692914     0.96697828     0.71951742     0.33864542
O      -3.86872995     2.38340380    -4.09013806     0.57672418     0.31940680     0.87784067
O      -3.91811887     2.43117773    -7.96727324    -0.26683529    -0.23762759    -0.19842687
O      -7.77690506     2.35700232    -4.03870618    -0.27533452     0.71165759     0.21712022
O      -7.80913513     2.37475816    -8.06638855    -0.40927953     0.65409744     0.07637735
O      -3.85185137     6.36466979    -3.89386616     0.30203545    -0.52378112    -0.72971910
O      -4.01192603     6.32980037    -7.83652076     0.88304710     0.27573404    -0.41572724
O      -7.91611930     6.27426591    -4.08516831     0.35414919     1.45914727     0.35523379
O      -7.81930797     6.41353133    -7.89339519     1.09080884    -0.04168818     0.08066399
O      -3.89479355     4.47638466    -1.94595388     0.21867384    -0.72639274    -1.23964151
O      -3.94892796     4.33441878    -5.91282803     0.20337935     0.69080656    -1.03446940
O      -7.63815399     4.50477560    -9.95828972    -0.99286419    -0.27881104    -1.04898120
O      -7.69231345     4.40830224    -6.06799756     0.06580590    -0.33781801    -0.41191219
O      -7.95967767     8.75206283    -9.89326550     1.02896574     0.23253280    -0.30469179
O      -8.01197156     8.66926466    -6.02559392     0.42866063    -0.38667897     0.38735593
O     -11.60204014     8.57232153    -6.00346935    -0.96160470     0.74470914    -0.01695057
O     -11.73596202     8.75308390    -9.80141141     0.81867976    -0.16660389    -0.55690470
O      -9.70245009     4.22764092    -8.11911704    -0.62212017    -0.79183761     0.28751238
O      -1.93193494     4.17212799    -0.17898465     0.05790425     0.25725416     0.92088634
O      -5.83888302     4.19062791    -3.99615842    -0.10263087    -0.29103560    -0.27829316
O      -5.87239214     4.47870558    -8.16757485     1.00766404    -0.53356912     0.55700791
O      -2.07519705     0.18754718    -4.00106360     0.21185885     0.94018485     1.49232607
O      -5.87057029     8.58117867    -8.08121760     0.42234736     0.71102053     0.79951405
O      -5.93515959     0.27290431    -3.93862445    -0.11071672    -0.15909931     0.40211767
O      -5.86768284     0.57943109    -8.04529785    -0.30854012     0.48515484    -0.51939687
