# total energy = -630.91130531 eV

CRYSTAL
PRIMVEC
        0.00285542     0.02004370    -7.95977623
       -7.82940539     0.00763210    -3.98158109
       -3.91729101     8.74642787     0.01461334
PRIMCOORD
56 1
Li     -3.96122720     2.49053748    -1.87854791     0.16227814    -0.10625004    -0.14577752
Li     -4.09894741     2.50256183    -5.89932885     0.28155062    -0.39705701    -0.11229894
Li     -7.84060496     2.37650593   -10.00312167    -0.21977121    -0.42780880     0.38089739
Li     -7.76370957     2.53383019    -5.91502871    -0.37705476    -0.67067614     0.27545510
Li     -4.04355862     6.49283156    -2.04989654     0.76850618    -0.40455717     0.29728674
Li     -3.98293964     6.78570969    -5.84660786     0.38747474    -0.19197266    -0.32385903
Li     -7.90947410     6.47380813    -9.86514973    -0.36484972     0.15525107    -0.43307435
Li     -7.82804061     6.62497229    -5.87958401     0.23341779    -0.25544537    -0.37437035
Ti     -2.03906749     2.15120096    -3.98385425     0.28608138    -1.34729027    -0.05807010
Ti     -5.89050041     6.45196507    -8.02204939    -0.73200122     0.47562902     0.61514343
Ti     -8.04024454     4.44083891    -7.73198790     0.19609392     0.12519543    -0.87773775
Ti     -7.75945363     4.44072869    -3.67837503    -2.09487924    -1.10448638    -1.42394379
Ti     -3.79911315     4.38295536    -7.66229543    -0.11589047    -0.15241587     0.51956488
Ti     -3.98284390     4.42188999    -3.80904621    -0.40535885     0.02208541     0.19405278
Ti     -5.59701613     8.67009197    -1.99121989    -0.84702074     1.22265089    -0.48539148
Ni     -5.99160409     2.48341044    -7.95960506     0.43489189    -1.07609920    -0.13572481
Ni     -5.95915684     2.03857098    -4.02537911     0.07539021     0.19835279     1.03498510
Ni     -9.82127917     6.83370904    -7.85448277    -0.53881024    -0.71551771    -1.36337356
Ni     -9.78681484     6.49106817    -3.97660610    -0.57590286     0.89300425     0.12660502
Ni     -2.01688916     1.89254750    -7.94762022     0.72553533     1.14828023    -0.06556740
Ni     -5.82362435     6.53792548    -4.08796954    -1.07085640    -0.01029739     0.45105990
Ni     -5.80203714     8.71296892    -6.00399774    -0.17789225     0.61385520     0.27366040
Mo     -5.77713159     0.14439053   -10.18744684    -3.20502269    -0.15942502    -1.21212241
Mo     -9.67203556     8.67963873    -6.23463183     1.34485647     1.27553220    -1.29614793
O      -1.99535746     1.98797876    -1.93511838     0.17013395    -1.81217599    -0.30182953
O      -1.96706606     1.81002838    -6.04420411    -0.21969724     0.09453123     0.05172639
O      -5.96928828     6.73621006    -2.02373726     0.17142775     0.35394597    -0.27528907
O      -5.94310700     6.90839809    -5.98822121     0.54114549    -0.68384378    -0.10274513
O      -5.85505026     2.06387840   -10.01788247    -0.78536380     0.22580188    -0.32146524
O      -5.92738602     1.90703336    -5.89760930    -0.22533207    -0.18359452     0.57908520
O      -9.89795568     6.93889421    -9.87415946     1.21840210    -0.26181851     0.89408983
O      -9.70366390     6.78250417    -5.98086906    -0.80768386    -0.38596692     0.10024845
O      -4.02490814     2.44428343    -3.91223040     0.22294447    -0.80036769    -0.67181231
O      -4.07054632     2.49284224    -7.91416519     0.35751095     0.30647204     0.11383067
O      -7.88128846     2.34224035    -3.95520680    -0.09606716     0.72963294    -0.16246083
O      -7.86654984     2.43513206    -7.94728118    -0.52143105     0.63395649    -0.14908041
O      -3.90209693     6.39100922    -3.96296818     0.00554873     0.36875221     0.11803626
O      -4.05691858     6.33547251    -7.93355123     1.18036265    -0.01481797    -0.33379571
O      -7.84985145     6.33605423    -4.06308684     0.20164809     0.22104195     0.96433010
O      -7.95794502     6.40833366    -7.97815282     0.38261512    -0.03598027     0.35948699
O      -3.85145482     4.44148131    -2.04737881    -0.58015832     0.25525696     0.55457510
O      -3.89349132     4.44469933    -5.87503948    -0.48345250    -0.20419392    -0.93207116
O      -8.00113694     4.43133659    -9.91675109     0.47666950    -0.18694205     0.87972829
O      -7.98196687     4.32182002    -6.02161546    -0.22508952     0.70372550     1.38806563
O      -4.06440505     0.09079233    -9.95818827     1.29702003    -0.37214802     0.28455665
O      -7.87358183     8.68169319    -6.21033011    -0.83149968     0.21318236     0.36420906
O      -3.81309286     8.51919869    -1.97187251     0.04749608     0.25988798    -0.42831048
O     -11.66022295     8.69967314   -10.02744721     0.31071690     0.87989490    -0.00404691
O      -2.06907942     4.04623583    -4.03079280    -0.07599840     0.31042446    -0.22288819
O      -9.83844429     4.63026105   -11.83580925     1.03952147     0.32548118    -0.72767248
O      -6.00370593     4.46289500    -4.10505146     2.59493718     0.12709503     0.12515575
O      -6.02848682     4.49827630    -7.89901988     0.84398392    -0.08605351    -0.43610184
O      -1.93777301     0.20429305    -4.04095658    -0.26895456    -0.04392213     0.87134982
O      -5.78997105     8.43466701    -8.08854093    -0.60967216     0.07022899     0.36549908
O      -9.75833205     8.48885709    -4.09501915     0.28156950    -0.36394239     0.39419768
O      -6.02004890     0.60677210    -8.02736238     0.30232258    -0.24427960     0.89989867
