# total energy = -630.26909668 eV

CRYSTAL
PRIMVEC
        0.00279571     0.02951795    -7.98606283
       -7.83802570     0.01298533    -3.99532603
       -3.92160916     8.71933433     0.00634407
PRIMCOORD
56 1
Li     -4.07410298     2.21590103    -1.95679730     0.12135367     0.24933305    -0.03055011
Li     -3.85574622     2.29216355    -5.93933405    -0.70731817     0.04952188    -0.49747122
Li     -7.80816339     2.26957294   -10.01967158    -0.54023117     0.22969531     0.36644748
Li     -7.85581483     2.40516169    -5.80261104     0.39261936    -0.15289064    -0.60609738
Li     -3.76409601     6.45299256    -2.03100031    -0.71881471    -0.22912769     0.21985056
Li     -3.75901743     6.39193070    -5.88512123    -0.33300767    -0.22309016    -0.04103540
Li     -7.65058564     6.58935501    -9.80278866    -0.78554356    -0.45000600    -0.09050386
Li     -7.73470095     6.58091175    -5.88951367    -0.16295919     0.02562423     0.09102942
Ti     -2.04271840     2.14131428    -4.00687506     2.15173133     0.86679074    -0.51500066
Ti     -5.65452550     6.75571920    -7.90649795    -1.76063880     0.41812689     0.35294012
Ti     -7.87055451     4.45058613    -7.66210608     1.08062162    -1.03273491    -0.15289177
Ti     -7.88590039     4.50953138    -3.64211121     0.63281329    -0.69753465    -0.07580681
Ti     -3.77111061     4.27317637    -7.79115078    -0.73839107     0.14140842     0.57795642
Ti     -3.96995626     4.35421048    -3.77754525    -0.93430749     0.01969756     1.38558581
Ti     -6.02939420     8.71791747    -2.21885836    -0.21008654    -0.44445108     1.98557881
Ni     -5.97065803     2.32822578    -8.00222460     1.50808231     1.07795774    -0.01212111
Ni     -6.01030142     2.20489673    -4.07010169     0.91322911     0.46390961     0.43634868
Ni     -9.75401302     6.53124060    -7.99557820     0.75584744    -0.12661966     2.70914788
Ni     -9.77023499     6.61470463    -4.07578070     0.48479629    -0.42016587     0.08978421
Ni     -1.98987240     2.07785543    -8.08786578     0.10627048    -0.10557851     0.75792680
Ni     -5.76875020     6.64061138    -3.90026703    -0.43811496    -0.69049526    -1.37168349
Ni     -2.08569473     0.08241351    -6.00085938     0.58835302    -0.76015533    -0.91055522
Mo     -9.90102043     8.73890571   -10.18499080     0.05839729     1.03084744    -1.21124070
Mo     -9.82168958     8.63983590    -6.40325527     0.92369801    -0.54779905     0.76417850
O      -1.77522369     1.87404715    -2.08206413    -0.82766831     0.42889184     0.62091924
O      -2.01496230     1.98085484    -6.18362334    -0.22295956    -1.25909111     1.10112523
O      -5.83121186     6.81604770    -2.00247959     0.09251850    -0.38087722     0.28085600
O      -5.81030154     6.91475185    -5.94019947     0.21621541     0.02208477    -0.04759026
O      -5.93896758     2.00633597   -10.09500313    -0.18520621    -0.28986291    -0.47080132
O      -5.76339740     1.79430771    -5.93813670    -1.02168466     0.85293648     0.59051853
O      -9.56085679     6.96221898    -9.69913497    -0.77572242     0.09055239    -1.08110351
O      -9.75063512     6.69908667    -6.06449339    -0.08727926     0.19397605    -0.25945548
O      -3.89724803     2.41254601    -3.97746319    -0.83797290    -1.33181766    -0.13703033
O      -3.97963369     2.42218088    -8.05841258     0.55639971    -0.06656257     0.34041991
O      -7.95493879     2.44145378    -3.92352080     0.43928398     0.25527084    -0.23654182
O      -7.79562202     2.31441305    -7.94060221    -1.25687446     0.98312105    -0.44990411
O      -3.80647910     6.24484259    -3.97138363     0.09746034     1.15210587    -0.32917662
O      -3.87254727     6.36178691    -8.00140088     0.43128470     0.22908587     0.35741016
O      -7.76833775     6.42065212    -3.95198720     0.06507615    -0.24373890     0.40844246
O      -7.77399824     6.35995969    -7.82525352     0.00541301     0.03952356    -0.70500323
O      -4.26480511     4.40829595    -1.97904743     1.18519365    -0.07284177    -0.85270667
O      -3.79024985     4.37314080    -5.99362439    -0.31252565     0.15407025    -0.52244818
O      -7.98677644     4.44608289    -9.84066298     0.43048423    -0.05161407    -1.17969928
O      -8.00591276     4.27179517    -5.93203492    -0.09914105     0.51204853     0.34598574
O      -3.90566293     0.29375106    -1.93539267    -0.74629909    -1.27475924    -0.55767281
O      -7.93639250     8.54994089    -6.03764799    -0.71666466     0.50107196    -0.47708350
O     -11.61289101     8.59818632    -6.12498242     0.34400687    -0.06623456    -0.07390078
O      -7.73399007     0.04374228    -9.96680721     0.04844268    -0.19259260    -0.15694693
O      -2.00064859     4.01851273    -3.92869053     0.02132083     0.20209722    -0.01614321
O      -9.78923280     4.74315940    -3.99677710     0.55336375     0.00711886    -0.32570674
O      -5.88583028     4.22304775    -4.17123687    -1.02221081    -0.11487080     0.47090182
O      -5.89861842     4.26925427    -7.73642392    -0.14229021     0.02038248    -0.69760652
O      -2.07285020     0.09310913    -4.03449914     0.28961885     1.27247310    -0.87430602
O      -5.77737184     8.55992578    -8.09262807     0.16476185    -0.32441320     0.44207901
O      -9.88505471     8.45514438    -4.06278998     0.49090381     0.80949893     0.87780226
O      -5.90909202     0.51981401    -8.12656433     0.28064108    -0.12441851    -0.68901856
