# total energy = -630.57810951 eV

CRYSTAL
PRIMVEC
        0.00285542     0.02004370    -7.95977623
       -7.82940539     0.00763210    -3.98158109
       -3.91729101     8.74642787     0.01461334
PRIMCOORD
56 1
Li     -3.84183111     2.34226000    -1.90258828    -0.45891532     0.24231797     0.03303773
Li     -3.93322075     2.02199916    -5.80717028    -0.31908406     0.18639054    -0.95555403
Li     -7.92324953     2.21623646   -10.03026069     0.68654834    -0.08957088     0.27723015
Li     -7.67231865     2.19066167    -5.83309585    -0.61117270    -0.02582284    -0.29321454
Li     -3.94699060     6.59826095    -1.93847923     0.63448267    -0.19903354     0.15212329
Li     -3.92443572     6.59457511    -5.60007703    -0.13644954    -0.02569675    -1.03913042
Li     -7.74427378     6.50486814    -9.90885573    -0.44805920    -0.16395508    -0.24957073
Li     -7.66482459     6.34943463    -5.80872009    -0.67370727     0.20246055    -0.34121827
Ti     -1.94716744     2.25941545    -4.07579129    -0.09441819     0.65153042     0.41308089
Ti     -5.85993880     6.65612450    -7.95921703     0.55317959     0.98178891     0.23322151
Ti     -7.78265728     4.37058332    -7.70937762    -0.81797927    -0.62676946    -0.02801716
Ti     -7.85631628     4.35216786    -3.71406084    -0.03286590     0.35880252     0.27743976
Ti     -3.97580195     4.44914908    -7.57709033     0.76860661    -0.67166974    -0.71341704
Ti     -4.07360526     4.42497293    -3.59609623     0.89395033     0.13475055    -0.92104454
Ti     -2.13450401     0.06007014    -2.10485150     0.76375443    -0.70520801     0.56117256
Ni     -5.86136167     2.32404133    -8.04134117     0.37045452    -0.31879604    -0.27186206
Ni     -5.88264991     2.27084906    -4.08501994     0.16173707    -0.45327220     0.17161154
Ni     -9.65498982     6.56594086    -7.97267701    -1.41564222    -0.19615401     1.26741883
Ni     -9.77050413     6.50753858    -3.97263090    -0.06179596    -0.45441304     0.56448994
Ni     -1.99115738     2.30608722    -7.98115597     0.88390819    -0.06961125     0.52961865
Ni     -5.90141571     6.61958407    -3.96399094     0.53023409     0.45025219     0.24134554
Ni     -5.92936610     8.74057878    -5.98960134     0.13790197    -1.11398543     0.10224302
Mo     -5.91438105     0.02704381   -10.27047400    -2.06878708    -0.51553342    -0.31001352
Mo     -9.76845406     8.61871121    -6.32475792    -0.73318812     0.06559612     0.25571178
O      -1.93504476     1.98372063    -1.92813381    -0.15224592    -1.13757856    -0.85684933
O      -1.97883482     1.82016283    -6.00503008    -0.44413889     0.31626171     0.29662193
O      -5.80151098     6.80405978    -1.93710504    -0.79488483     0.25248033    -0.90385162
O      -5.87163199     6.85504452    -5.91912852     0.21060278     0.39040883     0.38927008
O      -5.77994131     1.99710989    -9.97473284    -0.43061434    -0.21915930    -0.40738995
O      -5.83696029     2.02035816    -6.14828407     0.02508928    -0.80122742     0.70457400
O      -9.86830286     6.82017759    -9.83036793     1.07908520     0.83458471    -0.84086821
O      -9.69189851     6.71481734    -6.04119079    -0.17062111     0.06025493     0.63231838
O      -3.93785649     2.42471904    -3.97552572     0.58345268    -0.34232792     0.28361677
O      -3.79766948     2.53404769    -7.93920002    -1.51139180    -0.46298100     0.03655240
O      -7.88016848     2.39160629    -3.92467331     0.09892722    -0.17747266    -0.50966343
O      -7.85554200     2.36720868    -8.02828810    -0.34623726     0.26798922     0.08117494
O      -3.72693024     6.31826294    -3.81489009    -0.71948226     0.57495983    -0.67683926
O      -3.91995438     6.39603504    -7.82955562     0.07178326     0.32954730    -0.44114415
O      -7.83391702     6.35735234    -3.95905217    -0.32445886    -0.59291581     0.38012337
O      -7.75832329     6.30209635    -7.94456560    -0.79039709     0.05550420    -0.00177782
O      -3.89936333     4.53320878    -1.88019366     0.06739586    -0.59370932     0.61730592
O      -4.12089773     4.43003470    -5.86312879     0.28723223     0.34806040     0.60200197
O      -7.71385071     4.31837370    -9.92851162    -0.53324673     0.21687366     0.36936591
O      -7.64964199     4.21506988    -5.96047207    -0.30777877     0.61086860    -0.14921637
O      -7.96727040     8.65935556    -9.99435277     0.68331018     0.09917100    -0.27908932
O      -7.95785665     8.58217400    -6.02274786    -0.62798262     0.97116279     0.01166341
O     -11.64404495     8.62416397    -5.87826920     1.30328794     0.46044099    -0.90510549
O     -11.67235652     8.75181088    -9.98946125     1.09681056     0.09680612    -0.47614040
O      -2.03161926     4.13264396    -3.90605561     1.12420614    -0.60671768    -0.51517217
O      -1.95359775     4.29455962    -7.77937954    -0.48733469     0.59890094    -0.62055941
O      -5.89025292     4.06575268    -3.89939555    -0.40625126     1.10903943    -0.25796275
O      -5.92438315     4.47617234    -8.13035581     1.28734428    -0.20017490     0.89131986
O      -2.00008996     0.07403016    -3.95501318     0.06238157     0.94675453     0.15212216
O      -6.15987628     8.51414525    -7.99662579     1.02196551    -0.10122445     0.19876381
O      -5.89488249     0.45261720    -4.15748140     0.29464564    -0.99663370     1.03572827
O      -5.89547774     0.46367119    -8.13945499     0.19843614    -0.02069484     1.02432576
