# total energy = -630.70447679 eV

CRYSTAL
PRIMVEC
        0.00279571     0.02951795    -7.98606283
       -7.83802570     0.01298533    -3.99532603
       -3.92160916     8.71933433     0.00634407
PRIMCOORD
56 1
Li     -3.92700093     2.48409753    -1.84012045     0.19804154    -0.46317159    -0.35950172
Li     -3.77724505     2.04592373    -6.10431786    -1.26198427     0.09875138     0.66627282
Li     -7.72103133     2.29524894   -10.08804393    -0.35310947     0.00813191     0.93588303
Li     -7.70414613     2.42674484    -5.95430894    -0.56057529    -0.20554212     0.16886828
Li     -3.95238634     6.41362082    -2.04232404     0.02508220     0.17783002     0.03063924
Li     -4.03300321     6.82204755    -5.73903013     0.48781411    -0.34791753    -0.44812725
Li     -7.79435171     6.54691830    -9.79786236    -0.84452393    -0.17372612    -1.24059943
Li     -7.88672379     6.47233244    -5.95430748     0.25712799     0.13587335    -0.01705183
Ti     -1.98364343     2.12590406    -4.03746177     0.40402427     0.20478900     1.00478097
Ti     -5.83302135     6.58123066    -7.96560279    -0.68065027     1.86205570    -0.24951160
Ti     -7.69339130     4.39393103    -7.79463500    -1.18702062    -1.04977565     0.77501481
Ti     -7.86280970     4.35390876    -3.81980713     0.46278561     0.59970926    -0.01793612
Ti     -3.88649138     4.46740741    -7.73312135     1.42727306    -0.30391105     0.21709278
Ti     -3.87849178     4.41308049    -3.86757684    -0.92402690     0.38581472     0.76781016
Ti     -2.15497637     0.06098969    -1.92158394     0.41318779    -0.26922321    -0.01422692
Ni     -5.70976591     2.10787753    -7.87087395    -1.38334556    -0.01894165     0.99523459
Ni     -5.85105310     2.29999384    -3.94802803    -0.12381542    -0.32997391    -1.01993695
Ni     -9.73025430     6.34369189    -8.05943541    -1.22308761    -0.10293100     0.18569085
Ni     -9.78529361     6.63455622    -4.10363319    -0.25730630    -0.42843208     1.21327749
Ni     -1.94751878     2.30372511    -7.84755034    -0.00887354    -0.31028878    -1.57988687
Ni     -6.01571180     6.66900702    -4.07399466     0.43131313    -0.13500749     0.88380266
Ni     -2.04638869     0.07409460    -6.01423672     0.16653504     0.42767766     0.14248825
Mo     -5.93468196     0.04331335   -10.27480677    -0.21762381    -1.65797403    -0.22208990
Mo     -9.87218794     8.72752096    -6.27211396     0.02436627    -0.28220103    -1.81227753
O      -1.91890533     1.94820112    -2.01930118    -0.17659523    -0.15008345     0.03470270
O      -1.97390252     1.94212437    -5.96783876     0.67746111    -0.39579076    -0.49566420
O      -5.99127841     6.82669034    -2.01902687     1.00974197    -0.11960947    -0.02165298
O      -5.93195515     6.98760887    -5.97692276    -0.18161205    -0.62562402     0.09491773
O      -5.78711547     1.76482563    -9.61798201     0.13588623     0.84636769    -1.31011245
O      -5.83572054     1.90971596    -6.03437042    -0.20353336     0.84787486     0.61455781
O      -9.89128510     6.78737760   -10.14091497     0.59522129     0.22127451    -0.16360714
O      -9.68936434     6.75513313    -5.93016735    -1.50644701    -0.11574386     0.20000361
O      -3.86820988     2.38137289    -3.95652666    -0.06490626    -0.09263410    -0.43519594
O      -3.90487385     2.46321059    -7.92338533     0.40775576    -0.00498175    -0.21757391
O      -7.85380701     2.33085460    -3.98737337     0.49457008     0.79600465     0.10706620
O      -7.69585926     2.45072345    -7.97084742    -0.15205477     0.11615208    -0.07324754
O      -3.93150472     6.33850693    -3.94815835    -0.08932836    -0.49966207    -0.24197467
O      -3.97217756     6.46121583    -7.96190885     1.20683207    -0.21866078    -0.61080443
O      -7.89850393     6.35239641    -3.99603112     0.30571282    -0.12794656    -0.14007822
O      -7.83189533     6.32757593    -7.95766347     0.28611446     0.29011228    -0.31365158
O      -4.10280885     4.25826743    -2.09435283     0.04791013     1.00837773     0.15087209
O      -4.07831390     4.40203494    -5.99374903     0.36374547    -0.21850686     0.31255901
O      -7.98553307     4.46556006   -10.04529444     0.13833985    -0.35682147     0.70862878
O      -7.92652690     4.49384499    -6.02362545     0.49850225    -0.59257387    -0.74196639
O      -7.94641542     8.58865995    -2.10048867     0.54655991     0.43113343     0.47846973
O      -8.04798984     8.70857287    -6.18090522     1.29994948     0.52190379     0.52981009
O     -11.69241204     8.65879405    -6.03276295     0.23535449     0.15627192    -0.13180240
O     -11.60603216     8.71128647    -9.88827298    -0.30520141     0.72743011    -0.77264241
O      -1.95148821     4.29509383    -4.00939886     0.23507049     0.20407937    -0.32789674
O      -2.03741570     4.20394718    -0.21119826     0.43675735     0.24511464     0.81086379
O      -5.94686555     4.18073421    -4.02255193     0.05125842    -0.28585584    -0.24990456
O      -5.81313537     4.71766216    -7.95143786    -0.67080554    -0.72217794    -0.48913331
O      -1.94323578     0.26553775    -4.04297105    -0.25988487    -0.01464042     0.25004288
O      -5.87862150     8.58566320    -8.03249909    -0.14890544     0.31944067     0.30896104
O      -5.83494437     0.23789024    -4.13014122    -0.35040192     0.34520922     1.39611079
O      -9.81937929     8.14525318    -8.04438996     0.03761833     0.21551522    -0.29615363
