# total energy = -630.79512872 eV

CRYSTAL
PRIMVEC
        0.00285542     0.02004370    -7.95977623
       -7.82940539     0.00763210    -3.98158109
       -3.91729101     8.74642787     0.01461334
PRIMCOORD
56 1
Li     -3.99709997     2.31333462    -1.95749689     0.32249880     0.11620061    -0.44122051
Li     -3.96675291     2.17029283    -6.17166542     0.12785209     0.39161548     0.51676017
Li     -7.88380559     2.19468805   -10.05391351     0.26820213    -0.19816399     0.30686847
Li     -7.99475556     2.17484242    -5.80221388     0.80449015     0.30027116    -0.28039989
Li     -3.90927524     6.40781550    -1.85983174    -0.00689901    -0.06028227    -0.65067002
Li     -3.89621524     6.93079298    -5.94036292    -0.59924432    -0.52912931     0.02434101
Li     -7.87362059     6.54640862    -9.86786979    -0.45634385    -0.25727834    -0.56406279
Li     -7.82962501     6.36235871    -5.98239615     0.06236423    -0.07446132     0.46220538
Ti     -2.05278537     2.18159437    -4.13570799    -0.67106561     0.22778250     1.52050272
Ti     -6.00628926     6.49060661    -8.03386993     1.53644794     0.62335635     0.14623497
Ti     -7.99471456     4.32269735    -7.69123301     0.36664967    -0.15093460     0.05255865
Ti     -7.75686354     4.43032991    -3.74302390    -0.56139705    -0.18271369    -0.43998468
Ti     -3.83826666     4.38386039    -7.69661260    -0.14971171     0.65640865    -0.05828713
Ti     -4.03434509     4.51455551    -3.81372049     0.62761021    -0.55943140     0.45187825
Ti     -5.61734870     8.67838037    -1.97770660    -0.73752856     0.88992686     0.08766147
Ni     -5.97694436     2.37790270    -8.06082792     0.25856462     0.89568842     0.03112138
Ni     -5.84282597     2.24763694    -4.01552345    -0.60806348     0.03946828     1.46916240
Ni     -9.82457494     6.66327484    -7.87812458    -0.54196881     0.02681721     0.76357586
Ni     -9.85224329     6.53336838    -4.07863482     0.67444705    -0.72615047     1.33843474
Ni     -2.01056229     2.22068649    -7.94143748     0.17911260     0.07156639    -0.29475767
Ni     -5.90189778     6.60976627    -4.04914762    -0.89381222     0.00306437     0.43310389
Ni     -5.79504028     8.67019561    -5.86111221    -0.28496538     0.87538155    -0.79778685
Mo     -9.71859981     8.71459651   -10.12391470    -1.03843665     1.15497001    -0.45806218
Mo     -5.67603524     0.02242913    -6.26469499    -1.85441019    -0.74753154     0.00193812
O      -1.99333792     1.84039096    -1.87385294    -0.30322418    -0.15934279    -0.05822258
O      -1.98480652     1.77010338    -5.93061556    -0.18092701     0.74273091    -2.00105794
O      -5.98960061     6.74241193    -2.17431767     0.25876981     0.14176111     1.92528945
O      -5.84014029     6.86303372    -5.87189629    -0.08392090    -0.29433909    -0.62298245
O      -5.93556944     1.97958949   -10.00569302     0.40050474     0.10735231    -0.81275748
O      -5.83767046     1.89037716    -5.77598610    -0.38005923    -0.09511901    -1.79213272
O      -9.87983316     6.87241454    -9.80849997     0.30800033    -0.52985713     0.41565495
O      -9.76633294     6.79600324    -5.90003968    -0.15200693     1.07647157    -2.00583674
O      -3.93193244     2.44175040    -3.95063214    -0.15813335    -0.73166246    -0.37387971
O      -4.00271927     2.48996474    -8.12106019     0.07942951    -0.40051045     1.57368860
O      -7.90834187     2.49367767    -3.95035628    -0.03739329    -0.68302593    -0.02484949
O      -7.92118177     2.42408231    -7.98887386     0.50042099    -0.32454043    -0.01917427
O      -4.03944509     6.44744572    -3.87361674     1.43229030    -0.03462089    -0.45743706
O      -3.96502804     6.39629226    -7.95483124    -0.31761792    -0.95744219     0.16156086
O      -7.84348229     6.35244052    -4.14843333    -0.12515394     0.19551045     1.03627836
O      -7.92765615     6.30043752    -7.88181451     0.07460796     0.80490220    -0.48882527
O      -4.03214125     4.27534887    -2.05507983     0.10243491     0.88763394    -0.06297562
O      -3.88981177     4.22147350    -5.94913856     0.06369158    -0.11265151    -0.41902523
O      -7.86981678     4.43919338    -9.95718735     0.23041533     0.18008522     0.60204997
O      -7.86858154     4.24493622    -5.95011683    -0.28932821     0.50317845    -0.46336561
O      -7.94767173     8.66749603    -9.84282451    -0.74505972     0.24800602    -0.06913805
O      -3.95549928     0.06127668    -6.07983225     0.59012994    -0.60353867    -0.19861485
O     -11.66961862     8.74773057    -5.84712346     0.67901134    -0.25623616    -0.58285825
O      -7.80456687     0.10276867    -9.96674135     1.35582866    -0.55369840     0.05230890
O      -2.04374065     4.15785265    -4.01224573     0.00202823     0.09540268    -0.04245571
O      -9.78362050     4.55643606    -4.00595768    -0.28365326     0.41968341    -0.26379794
O      -5.87668604     4.24774842    -4.21698245    -0.46343824    -0.21784102     0.59841254
O      -5.94523055     4.49975210    -7.92684207     0.20100894    -0.13574082    -0.17119899
O      -2.05338829     0.28405729    -3.95219462     0.28808404    -0.82435874     0.74367515
O      -5.85835900     8.36608993    -7.94883579    -0.46205045    -0.55911812    -0.54195922
O      -9.77638474     8.72061442    -3.99101084     0.33332141    -0.07360611    -0.09267133
O      -6.00230345     0.56312207    -8.02886114     0.41548872    -0.49777278     0.81378998
