# total energy = -630.54414939 eV

CRYSTAL
PRIMVEC
        0.00285542     0.02004370    -7.95977623
       -7.82940539     0.00763210    -3.98158109
       -3.91729101     8.74642787     0.01461334
PRIMCOORD
56 1
Li     -3.72805496     2.12450012    -2.00239782    -0.84435839     0.60072795     0.34812360
Li     -3.90140253     1.98371351    -5.88108298    -0.28760836     0.06609637    -0.65319782
Li     -7.78610066     2.54898351    -9.92000775     0.03600065    -0.52647672    -0.40008590
Li     -7.76814864     2.19364453    -5.82113818     0.11247305    -0.08107982    -0.45888048
Li     -3.92455758     6.69007597    -1.92067576     0.14161067    -0.56421071    -0.26522958
Li     -3.91339027     6.48812940    -5.86277766     0.02300794     0.30071907    -0.43054732
Li     -7.76026320     6.31029517    -9.79906166    -0.80238046    -0.17899315    -0.52754246
Li     -7.85908088     6.46567514    -5.96918392     0.06180820    -0.02560588     0.47891572
Ti     -2.02437537     2.16980445    -4.10102564     2.27907562    -0.50623962     0.05855830
Ti     -5.85351393     6.71744846    -7.93299247    -0.44702730     0.43878013     0.24767040
Ti     -7.91655359     4.23816759    -7.71496886     1.46548507     1.63872152    -0.54270373
Ti     -7.88511174     4.44329119    -3.86526629    -0.86269347    -0.81678055     1.53455378
Ti     -3.78835376     4.29654805    -7.62926940    -1.61414665     0.89563789    -2.38155464
Ti     -4.01670331     4.46075649    -3.83897854    -0.57892034     0.03655206     0.08430098
Ti     -6.08267021     8.67783265    -2.02720656    -1.12705847     0.47620302    -1.42305534
Ni     -5.79798033     2.31175594    -7.96607832     0.12296728     1.28299766     0.04709214
Ni     -5.84299374     2.13725781    -4.00547027    -0.49295238     0.41755214    -0.78222042
Ni     -9.79920337     6.54644262    -7.86013316     0.47593205     0.23008169    -0.01786530
Ni     -9.79101824     6.65422368    -3.85249362    -0.18225682     0.77840122    -0.97366496
Ni     -1.91746513     2.05830665    -7.94745109     0.21804762    -0.20325472     0.22892576
Ni     -5.86502170     6.55083826    -4.01642738    -0.86411067     0.22413162     0.61766220
Ni     -5.93098059     8.68945334    -5.93042822     0.18974608     0.98262111     0.50104750
Mo     -5.98290355     0.15272883   -10.18534651    -2.54658604    -0.46746226    -1.16633657
Mo     -9.76342586     8.65797236    -6.32660803     1.33024511     0.03788481     0.88142752
O      -1.87303016     1.78603522    -1.89261652     0.01849716     1.16041425    -0.17917807
O      -2.01521768     1.84734986    -5.97971070     0.74653519    -0.05917789    -0.63899099
O      -5.98034667     6.73246160    -1.99589870     1.09980974     0.38660319     0.25960322
O      -5.97458287     6.86204678    -5.87163729     0.70585544    -0.32023523    -0.87205976
O      -5.83960171     2.02027669   -10.04229117    -0.17564085     1.07448662     0.51721719
O      -5.76857945     1.93254417    -5.94086354    -0.51282545     0.19839111     0.49238510
O      -9.75342600     7.08093020    -9.77272596     0.10180958    -1.47573826     0.98234638
O      -9.76736552     6.78392856    -5.91433060    -0.06752617    -0.04757607    -0.57054010
O      -3.78682531     2.44173978    -4.05580945    -2.69685409    -0.29406550     0.86766191
O      -3.79640107     2.48022038    -7.95614763    -0.06771255    -1.47634961    -0.14042407
O      -7.88902600     2.37270155    -3.98126552     0.41094200     0.66290952     0.51981270
O      -7.77865528     2.37150555    -7.89959515    -0.34453951    -0.28839041    -0.58218811
O      -3.84776174     6.43717965    -4.03523660    -0.37691396    -0.48958969     0.85611702
O      -4.00948928     6.50956684    -7.95079994    -0.03533869    -0.59551188     0.53148899
O      -7.84914331     6.39637765    -3.94035905     0.25507167     0.02113993    -0.06238298
O      -7.84313657     6.29936541    -7.90094311     0.25256213    -0.10879322     0.06411913
O      -3.81622569     4.41508643    -2.12410400    -0.01372551     0.02657073     0.40519624
O      -3.78413946     4.44998088    -5.93248229    -0.30133156     0.40973683     2.05528917
O      -7.76947207     4.40556106    -9.99627949    -0.32706671    -0.08443585    -0.58167353
O      -7.81943358     4.31127632    -5.97049247    -0.30892417     0.30025640     0.45860658
O      -4.05195346     0.16853311    -2.12511015     1.20529813    -0.35980703     0.63577418
O      -3.98456769     0.03097954    -5.91002004    -0.50704154    -0.60099935    -0.85591604
O      -7.57045792     0.01629490    -5.95232722    -1.23122193    -0.43925418    -0.15672678
O      -0.05660651     0.05903839    -6.11365659     1.99437713    -0.00392890     0.32662905
O      -1.92455467     4.15833070    -4.10261674    -0.31110322    -0.43784483     0.23422394
O      -9.88425871     4.87245541    -3.94264612     2.04016019    -0.77421765    -0.43006759
O      -6.00998677     4.40609018    -4.12747531     2.36497126     0.04989913     0.22571414
O      -5.74956552     4.17429534    -8.04469212    -0.59837495     0.81629046     0.49368577
O      -2.00050406     0.22057238    -3.94480833     0.37797638    -0.25711262     0.42026819
O      -5.95631198     8.58923482    -8.05851442    -0.04109894    -1.58692666     0.23980848
O      -9.77711563     8.64632159    -4.03074360    -0.03047256    -0.04523260     0.50404063
O      -5.91151280     0.51364294    -8.05511847     0.40871167    -0.27128626    -1.17622339
