# total energy = -630.26403638 eV

CRYSTAL
PRIMVEC
        0.00279571     0.02951795    -7.98606283
       -7.83802570     0.01298533    -3.99532603
       -3.92160916     8.71933433     0.00634407
PRIMCOORD
56 1
Li     -3.89732059     2.13657546    -2.04742554     0.03584574     0.12723631     0.83556918
Li     -3.97642209     2.31032376    -6.01928778    -0.05952067    -0.30883979     0.09868603
Li     -7.75862700     2.31390280   -10.11820452    -0.33374389    -0.13556166     0.23246216
Li     -7.78144264     2.05164065    -5.95355182    -0.33928872     0.13206631    -0.41602178
Li     -3.81445120     6.50684552    -1.91101552    -0.32393146    -0.27510417     0.17993253
Li     -3.68171428     6.42142060    -5.73558312    -0.73381887    -0.09168538    -0.67018101
Li     -7.74853399     6.57320720   -10.02695462    -0.66259911    -0.54284132     0.67136985
Li     -7.79204264     6.58356173    -5.75907333    -0.29820352    -0.13771099    -0.30147109
Ti     -1.93662731     2.31945411    -4.13953897    -0.30911449     1.02517308    -0.16651600
Ti     -5.87795796     6.68393659    -7.88162940    -0.13157036    -0.91966636     0.85052754
Ti     -7.79102714     4.34390198    -7.67294863     0.53062027     1.58707095     1.02776575
Ti     -7.81489913     4.25315121    -3.76279795    -0.68818165     0.71007142    -1.20851701
Ti     -3.80091878     4.44540366    -7.63066799     0.10316506    -1.16988986    -0.73445590
Ti     -4.17701204     4.38341437    -3.67399828     2.02191846     0.80657513    -1.27299334
Ti     -6.06548565     8.61299617    -2.35028578     0.51446809     1.39218033     0.39796933
Ni     -5.86437395     2.34602022    -8.12119882     0.21604626     1.38634356     0.74810148
Ni     -5.92789257     2.14126384    -4.11242926     0.80159308    -0.43459174    -0.48061344
Ni     -9.77542119     6.47372863    -7.73635463     0.54474899    -0.14406889    -0.34899690
Ni     -9.68817908     6.66927115    -3.92353597    -0.58594030    -0.35400348     0.76888956
Ni     -2.05702032     2.13384805    -8.06837454     0.89682879     0.17090045     0.17098225
Ni     -5.83690918     6.59979478    -3.89363217    -0.13986515    -0.29484425    -1.17658442
Ni     -2.04264826     0.10852091    -6.03981432    -0.27662807    -2.54382348     0.54234214
Mo     -9.90384763     8.75134502   -10.24076501    -0.95186234    -0.19250276    -0.82770800
Mo     -9.86704146     8.68080237    -6.38498840     3.31149287     0.10022232     1.38212502
O      -1.92841365     1.71687148    -1.89246045     0.10051093     1.08041209    -1.28043424
O      -1.97950806     1.90372657    -6.16258578     0.04444591     1.12082554     0.97684144
O      -5.84234114     6.77248377    -1.99964556     0.28702299    -0.48658911     0.45547995
O      -6.01563793     6.91618693    -5.91956023     1.36355100     0.22838335     0.92100394
O      -5.82376126     2.01556985   -10.08178533    -0.36251518    -0.19106902    -0.08392486
O      -5.85349309     1.95458211    -6.05672779    -0.54175830     0.28796798     0.07662425
O      -9.72528893     6.91501642    -9.91686160     0.49051443    -0.38030738     0.51863372
O      -9.69660850     6.86134143    -5.77254550    -0.84481483    -0.90580645    -1.09564703
O      -3.81392425     2.43088011    -3.87582755    -0.35168673    -0.07417277    -1.19301009
O      -4.04170327     2.48419331    -7.95430143     0.78619607    -0.18901583    -0.50033130
O      -7.82352301     2.33424478    -4.18883869    -0.00192376    -0.52267499     1.73333279
O      -7.81897960     2.46082414    -8.10540410    -0.18227174    -0.62212301     0.37063972
O      -3.80422390     6.41468662    -3.94036139    -1.00510049    -0.84853399     1.13300544
O      -3.94307743     6.32703209    -7.83756776     0.71641165     1.09404537    -0.49169418
O      -7.84386061     6.23159841    -3.88554262     0.82672831     0.87359072    -0.27565455
O      -7.80541402     6.36802957    -7.79920204    -0.01055518    -0.47526978    -1.09099393
O      -4.07233088     4.39537748    -1.96012152     0.45041392     0.38148739     0.64694354
O      -3.73522232     4.44974743    -5.87591342    -0.00261983    -0.30848525     0.29185576
O      -7.90172844     4.34322042   -10.00563874     0.30839586    -0.04131872     0.74484064
O      -7.87343344     4.40329493    -5.91118552     0.17240245    -0.00945866    -1.51136009
O      -3.90604527     0.01201125    -2.02196254    -1.08461055    -0.43504407    -0.23474677
O      -4.03206701     0.06318854    -6.10107069    -0.88645707     0.00857500    -0.15883981
O     -11.59895824     8.71355585    -5.99856904    -1.11637320    -0.41742955    -0.28088186
O     -11.68587249     8.70268638   -10.10518909     1.21757277     0.36037157     0.20928084
O      -1.92245549     4.27182966    -3.95935702     0.02943899    -1.07744442     0.11340922
O      -1.92841283     4.00468532    -0.18718257    -0.51635753    -0.24944794     0.63167258
O      -5.90643707     3.99366808    -4.17498950    -0.91200364     0.53351736     0.33459132
O      -5.73749530     4.42048155    -7.90417467    -1.89672602    -0.12091871     0.00007636
O      -1.98470942     0.36153326    -4.15552281     0.11739357    -0.07305700    -0.11957073
O      -5.78740114     8.47404730    -7.84226754    -0.40631824     1.46476710    -1.04543070
O      -5.82632222     0.25513120    -4.12172559    -0.12240300     0.44894865     1.39444329
O      -5.92388520     0.50667231    -8.13119758     0.10787353    -0.21519618    -1.63960564
