# total energy = -630.97351678 eV

CRYSTAL
PRIMVEC
        0.00285542     0.02004370    -7.95977623
       -7.82940539     0.00763210    -3.98158109
       -3.91729101     8.74642787     0.01461334
PRIMCOORD
56 1
Li     -3.98996607     1.99271937    -1.97742360     0.40141125     0.23908966     0.13873447
Li     -3.98695892     2.12448214    -5.99177795     0.19239403     0.20354432     0.16704282
Li     -7.71103410     2.19847091    -9.98594053    -0.44863254     0.31145086     0.03393456
Li     -7.85296604     2.08966468    -5.85698253     0.13855424    -0.05880227     0.11288964
Li     -4.00155885     6.66497223    -2.06167066     0.73206881    -0.12518646     0.25461775
Li     -3.78795311     6.23590299    -5.83508113    -0.17284544     0.22714733    -0.01660021
Li     -7.93277922     6.67574660    -9.96351577     0.29023528    -0.23603275     0.20536659
Li     -7.84313754     6.65787069    -5.79259261     0.25452307    -0.21986568    -0.22687596
Ti     -1.86305616     2.31910359    -4.10564961    -1.45168135    -1.48351883     0.48347112
Ti     -5.76586058     6.77227075    -7.82827002    -0.25121731    -0.88130132    -0.03999282
Ti     -7.74059631     4.43075419    -7.65938439    -0.92901596    -0.32323398     1.05346905
Ti     -7.80561034     4.42460058    -3.69010757    -0.97242858    -0.19655779     0.12582969
Ti     -3.81476710     4.37583759    -7.67814026    -0.85408076    -1.69752998     0.14686547
Ti     -4.06327370     4.34107434    -3.63943620     1.08757002    -0.48342344     0.77640535
Ti     -6.05069473     8.68375596    -2.08030084    -0.21715393     0.65041372    -1.64349119
Ni     -5.84188577     2.52111064    -8.01050833    -1.31917507    -2.07473438     0.07374738
Ni     -5.88585333     2.20996590    -4.02869499     0.15998155    -0.28543923     0.10479761
Ni     -9.73035351     6.59313103    -7.89333806    -0.86893413    -0.46532610     0.92630540
Ni     -9.82502285     6.35296975    -4.13544386     1.20507291     0.99628058     0.13641926
Ni     -2.00969677     2.08053728    -7.92711041     0.54813595     0.25793269    -0.49792393
Ni     -5.82021744     6.60917245    -3.90536638    -0.59488603     0.17773594    -0.60181061
Ni     -2.00609544     0.04477712    -5.94709966     0.70561720    -1.22525422     0.24664113
Mo     -9.93139278     8.73127559   -10.25536091     0.43142396     1.47679407    -0.44714044
Mo     -9.76438415     8.71653415    -6.40112049    -1.62559562     0.64572028     0.76043813
O      -1.92172992     1.81822483    -1.90327261    -0.50168491     0.61696055     0.08760392
O      -1.94261380     1.81680698    -6.04663637    -0.60757173     1.32306614     0.57368916
O      -5.87952132     6.75174470    -1.94673613     0.03853396     0.00053424     0.19152734
O      -5.81503347     6.94085461    -5.87358406    -0.21430307    -0.43611521    -0.56378725
O      -5.86947493     1.92335118   -10.12852352     0.50913041     0.87400551    -0.02704241
O      -5.86267417     1.92571694    -5.88133669    -0.31608268    -0.55653956     0.07659653
O      -9.79333534     7.01967602    -9.64267809    -0.43540405    -1.21106293    -0.11650407
O      -9.77240256     6.78148160    -6.04818049    -0.06331255     0.29362730    -0.18462132
O      -4.00597688     2.31713986    -3.98445815     0.98053478     1.19522866     0.19856809
O      -4.00584846     2.40696753    -7.98195521     1.38298073     0.50132928     0.25667638
O      -7.73076257     2.47039311    -3.91054093    -0.90206566    -0.12223449    -0.74094976
O      -7.83830181     2.40397769    -7.88444111     0.41942773     0.75417339    -0.40722364
O      -3.83927620     6.33007625    -4.01461114     0.25710581    -0.32805424     1.07046888
O      -3.82509316     6.32912423    -7.83876741    -2.09663995     0.66025910    -0.20432018
O      -7.83591288     6.43195454    -3.94398647    -0.23832961    -0.94752450     0.29205404
O      -7.79817590     6.29343653    -7.97591844     0.34338594     1.13200919     0.35984116
O      -3.72067599     4.36709406    -1.87359898    -1.04463168     0.19788035    -2.01901318
O      -3.82090517     4.30975917    -5.89240592    -0.20155253     0.08634182    -0.25888642
O      -8.04430842     4.31892876    -9.89148237     0.29661097     0.30100437    -0.04842354
O      -7.98643234     4.49505823    -5.88112450     0.41164947    -0.29182074    -1.33291453
O      -7.98763867     8.72630616    -2.07242253     1.25185998     0.16646197     0.77341851
O      -7.95164760     8.69552611    -6.06635341    -0.60395695     0.13470601    -0.39736138
O     -11.69250798     8.70287875    -6.04454733     1.66280636    -0.32682477    -0.24295242
O      -7.75439299     0.24838490   -10.07842733    -1.12086098    -1.05415238     0.24457950
O      -2.00388252     4.09829952    -3.97325632     0.19337234     0.43914316     0.04774898
O      -2.01091801     4.48431579    -0.01494616     1.96012043     0.39023034     0.02734196
O      -5.92308371     4.56147661    -3.91371140     0.77857312     0.41432282    -0.04777862
O      -5.86028548     4.35982453    -7.95888861     0.34443593     0.91348583     0.17724253
O      -2.09857285     0.15153341    -3.96260007     0.67410220     0.14202101     0.01861178
O      -5.83750336     8.53578963    -8.02594007    -0.12268777     0.58209221     0.53763747
O      -9.81075886     8.29563982    -4.02598105    -0.14664193    -0.31459090    -0.88556943
O      -6.00500990     0.64965383    -8.10408117     0.70703625    -0.25464082     0.26292163
