# total energy = -630.73480305 eV

CRYSTAL
PRIMVEC
        0.00279571     0.02951795    -7.98606283
       -7.83802570     0.01298533    -3.99532603
       -3.92160916     8.71933433     0.00634407
PRIMCOORD
56 1
Li     -4.02836787     2.54986736    -1.87189676     0.51961657    -0.57896714    -0.29526356
Li     -3.79197362     1.98342884    -6.12702293    -1.22055825     0.06883334     0.07075766
Li     -7.92209491     2.28503757    -9.72812267     0.89148635    -0.16801781    -1.21157101
Li     -7.88372768     2.41059723    -5.86051200     0.46134457    -0.33314543    -0.27675461
Li     -3.89589233     6.50472795    -2.09421505    -0.01677532    -0.17192263     0.55756606
Li     -3.86657807     6.55202315    -6.11650991    -0.01853230     0.05736746     1.21312508
Li     -7.84476474     6.34606590   -10.09195100    -0.32947232     0.18906723     1.17862964
Li     -7.80658124     6.56606267    -5.76766924     0.07021867    -0.19389019    -0.78693917
Ti     -2.03822921     2.20841920    -4.16287717    -0.03501339    -0.19040282     1.92084057
Ti     -5.85690632     6.61535192    -8.04001337    -0.90312189     0.27026452     0.16304514
Ti     -7.93145237     4.36479798    -7.68944574     0.33965326     0.72663377     0.35155766
Ti     -7.97856251     4.25185730    -3.70137717     0.21781306    -0.67178963     0.52198207
Ti     -3.88680106     4.37837463    -7.73066346     0.01248625    -0.09192081    -0.18655184
Ti     -4.14308198     4.39274543    -3.76481060     0.69500013     1.11392397     0.38502072
Ti     -5.93590300     8.71490574    -2.05002740    -0.98550827     0.92510020    -0.63341448
Ni     -5.87992422     2.37595981    -7.92810568     0.24381737     0.19109684    -0.31037692
Ni     -5.92853806     2.15748486    -4.08207097     0.77271414    -0.16806222     0.41845721
Ni     -9.80910668     6.67561312    -7.87078039     0.83967628    -0.79848060    -1.06121112
Ni     -9.71869802     6.54637113    -4.00700641    -0.96839101    -0.22313914    -0.01160737
Ni     -1.90128143     2.12353293    -8.04371490    -0.62687479    -0.43621848     0.46721910
Ni     -5.99589586     6.60270721    -3.98913329     0.99401147    -0.35785911    -0.53468258
Ni     -5.80243479     8.66844847    -6.00928839    -0.54245621     0.28100327     0.42933868
Mo     -5.86213084     0.12968065   -10.25161941    -0.67738817    -0.92920963    -0.95142575
Mo     -9.75257283     8.62799591    -6.36328847    -0.05356483     0.31906450     1.33095646
O      -1.89636535     1.96108460    -1.95697685    -0.35164708    -0.90499227     0.13196511
O      -1.97969401     1.82524798    -6.01924326     0.72116930     0.20067790    -0.72498736
O      -5.92671916     6.75577765    -2.03268802     0.37038321     0.01234733    -0.36386159
O      -5.87801213     6.87835936    -5.93041699     0.44559195    -0.48640261    -0.45027391
O      -5.82978964     1.99291674   -10.12533142    -0.32220253     1.11013177     0.23731211
O      -5.81910580     1.93075988    -5.93440844    -0.10306780    -0.02183213     0.03645566
O      -9.78214644     6.97112553    -9.77846340     0.32515362    -0.40400865     0.39726086
O      -9.78235769     6.71343492    -5.96786047     0.36430235     0.29253196    -0.77338170
O      -3.94292567     2.48498475    -4.04818979    -0.68315659    -1.09379815    -0.03334219
O      -3.89522639     2.44781082    -8.00407416     0.38431189     0.36306668     0.39397742
O      -7.82630527     2.29390148    -3.91805950    -0.19618229     0.83064018    -0.37897912
O      -7.89829492     2.38654788    -7.84911638     0.47853151     0.30546158    -0.58988034
O      -3.75354381     6.33819224    -4.03043639    -0.99812466    -0.05860273     0.47842233
O      -3.97291984     6.41140591    -8.00021386     0.19512453    -0.45347582     0.02729132
O      -7.88636343     6.16484581    -3.95297901     0.46741714     2.32914445     0.18080655
O      -7.77229845     6.33614628    -7.98613104    -0.79463125    -0.20301123     0.17855114
O      -3.97789387     4.42507251    -1.96600760     0.03417309     0.20146323    -1.24622750
O      -3.94117175     4.45470051    -5.97990388     0.27104268     0.07299269    -0.24796373
O      -8.04946042     4.34761484    -9.89166797     0.46440843    -0.19622762    -0.71356638
O      -7.74661789     4.53616504    -5.93783627    -0.47215971    -0.99984240    -0.82878037
O      -3.97083242     0.08269847    -9.97082682     0.57819105     0.09410863    -0.48562415
O      -7.90928641     8.63232737    -6.07354198    -0.40533491     0.20317348     0.04665777
O     -11.51075190     8.68457523    -5.85406126    -0.75025179    -0.12541073    -1.06998589
O      -7.69870152     0.11907374   -10.03872385     0.11617765    -0.13225898    -0.15844496
O      -2.02199005     4.05876117    -3.88983526     0.19612398     0.11115480    -0.44518748
O      -9.78546490     4.74650126    -4.03983771    -0.97260029    -1.22541813     0.04191546
O      -5.99693956     4.59448391    -4.04262910     0.17683101     0.07707142     0.44598465
O      -5.90653355     4.31712159    -8.11981262     0.22023378    -0.01563648     0.72737051
O      -1.99417756     0.09723565    -4.02614840     0.11245881     0.43017310     0.93185393
O      -5.93489506     8.46411070    -8.14218065     0.47543314    -0.07234755     1.01380360
O      -9.75011591     8.37420704    -4.05656785     0.46833866     0.83347618     0.73864944
O      -5.81884083     0.51182841    -8.08858822    -0.37804838     0.75489555    -0.40401235
