# total energy = -630.22186826 eV

CRYSTAL
PRIMVEC
        0.00285542     0.02004370    -7.95977623
       -7.82940539     0.00763210    -3.98158109
       -3.91729101     8.74642787     0.01461334
PRIMCOORD
56 1
Li     -3.79343819     2.20288375    -1.73092821    -0.83786599     0.11204749    -0.46728898
Li     -4.00685344     2.37859259    -5.97096991     0.33500939     0.12025543     0.09632306
Li     -7.82754998     2.37575892    -9.95517456     0.00997559     0.22058036     0.34103162
Li     -7.95644468     2.20507206    -5.98828452     0.65056506    -0.04209073     0.42468833
Li     -3.86645737     6.73248393    -1.84410487    -0.16457986    -0.26214496    -0.11516084
Li     -3.87866024     6.67298490    -5.88172758     0.15632565    -0.55076765     0.10815397
Li     -7.95456418     6.28039606    -9.85567298     0.18960743     0.10754784     0.21134774
Li     -7.86803329     6.55571827    -5.80498656     0.25637922    -0.13071798    -0.12089032
Ti     -2.07121009     2.13177625    -4.03854746     0.04336180     1.12076425    -0.22414996
Ti     -5.85590022     6.57317944    -7.93055559    -0.13880202    -1.59403538     0.26783272
Ti     -7.81258803     4.38512177    -7.73031708    -0.48962645    -0.48118110     0.29661145
Ti     -7.92630140     4.42436062    -3.80175276     1.24131835    -0.91818675     1.79205545
Ti     -3.75471793     4.37233872    -7.78737512    -0.07780237     0.01641103     1.52391954
Ti     -3.95389737     4.50279828    -3.67178984    -0.07343040    -1.30337513    -0.09967336
Ti     -6.12460417     8.67119406    -2.09976634    -0.73928800    -1.00763305     0.31849018
Ni     -5.84063087     2.32469664    -8.01468704    -0.34397726    -0.12603595     0.10935440
Ni     -5.86299647     2.34566120    -4.08865516    -0.41076525    -0.04248146     0.73027218
Ni     -9.69783983     6.54848835    -7.86662287    -1.33899583     0.09684635     0.93426589
Ni     -9.75590737     6.67836414    -3.95664326     0.26063460     0.02260993     0.01829037
Ni     -1.93370797     1.98338933    -7.90909896     0.99931255     0.34159323     0.47628854
Ni     -5.85548850     6.57005522    -3.90292519    -0.40657647    -0.58247473    -0.68069606
Ni     -5.87252570     8.71520884    -5.95200021    -0.31307858    -0.37196416    -0.13510859
Mo     -5.99993360     0.16580944   -10.24569380     1.89661384    -0.52992978    -1.13742715
Mo     -9.79211207     8.67817047    -6.36928418     0.55571932    -1.15643720     0.47434246
O      -1.99730698     1.77038228    -1.93499068     0.95184130     1.59314524     0.25773391
O      -1.89721164     1.82389421    -5.90166149    -0.58860552    -0.32755514    -1.23442900
O      -5.98051665     6.75665778    -2.07094701     0.76033595    -0.38536783     0.91530131
O      -5.76063836     6.91252394    -6.02527095    -0.43253004    -0.67242520     1.57879020
O      -5.86575233     2.08429974    -9.95355991     0.18513440    -0.67281409    -0.86642820
O      -5.79715850     1.85366940    -6.06214201    -0.76297084     0.86224732     0.88571757
O      -9.75102014     6.99298891    -9.69958743    -0.51175705     0.60063669    -0.71693757
O      -9.79077030     6.70267715    -5.89623421     0.12005682     0.68599118    -1.21057822
O      -3.97470169     2.35582492    -4.06984452     0.72635320     0.07779076     0.58318593
O      -3.73166088     2.36189651    -7.79156763    -0.68499184     0.53519076    -1.01633293
O      -7.77947015     2.45849275    -3.85553908    -0.54812595    -0.61783981    -1.75482814
O      -7.85877560     2.47425025    -7.96601650    -0.18289861    -0.70780598     0.61637037
O      -3.85899813     6.35558523    -3.74280441     0.36155732     0.71378572    -1.15629525
O      -3.91002688     6.34786746    -7.90326186    -0.29374320     0.56450959    -0.37814759
O      -7.80803174     6.37634550    -3.74439833     0.21225558     0.62991853    -1.49941693
O      -7.83374273     6.39865360    -7.89571933     0.32509406    -1.06588300    -0.26451209
O      -4.07317107     4.24868136    -1.92127341     0.56035873    -0.34344610    -0.12715654
O      -3.91411630     4.39717463    -5.99570745     0.08328623    -0.04472553    -0.61220973
O      -7.82758607     4.28456325    -9.91177053    -0.59876604     1.09808841    -1.08882926
O      -7.89305131     4.48625579    -5.95405950     0.09881962    -0.45983333    -0.15551191
O      -4.03786366     0.14056557    -9.86057601     0.40560485     0.00767549    -0.83664553
O      -7.99597160     8.48933215    -6.09927542     0.49308394     0.80111077    -0.08100806
O     -11.57664834     8.65199105    -5.92128697    -0.32875673     0.17458301    -0.27692992
O      -7.72922351     0.13416367   -10.02522959    -0.98561309    -0.38074440    -0.66391218
O      -2.01291424     4.10472635    -4.05099219    -0.15850827    -0.34926903     0.51285591
O      -9.73190975     4.83562164    -4.10810296    -1.12171844    -0.49684476     0.51688740
O      -5.91614645     4.42696616    -4.00624543     0.53957680     0.10429384    -0.27622744
O      -5.86940167     4.30900590    -7.92909181     0.32204646     0.15434750    -0.04517922
O      -1.85731178     0.06683712    -3.97543554    -0.53254829     0.75290517     0.08360903
O      -6.00299117     8.30112486    -8.05757433     0.66786492     2.98968967     0.03059672
O      -9.64968520     8.55491265    -4.16309931    -0.65213934     0.34936675     2.91708661
O      -5.98287444     0.42413150    -8.16278446     0.26626688     1.30491048     0.26182745
