# total energy = -630.99654413 eV

CRYSTAL
PRIMVEC
        0.00285542     0.02004370    -7.95977623
       -7.82940539     0.00763210    -3.98158109
       -3.91729101     8.74642787     0.01461334
PRIMCOORD
56 1
Li     -3.78078621     2.32456404    -1.95720215    -0.83538248     0.07156607     0.27841275
Li     -4.08348574     1.99752999    -5.93872464     0.73302766     0.21990634    -0.12323695
Li     -7.83859594     2.16600928    -9.85359965    -0.31755335     0.33879103    -1.08397502
Li     -7.81088351     2.06640856    -6.00864635    -0.38013178     0.39906400     0.48203289
Li     -3.96441931     6.31815973    -2.08552223    -0.00158602     0.36715395     0.74813962
Li     -3.86553577     6.39800449    -5.88263241     0.12424245     0.48580981     0.18368319
Li     -7.86550897     6.40161554    -9.77842665    -0.09554904    -0.00225118    -0.40562762
Li     -7.86590322     6.76180816    -5.78348431     0.45768485    -0.32865584    -0.11453418
Ti     -2.01307275     2.26495338    -4.08138132    -0.05278611    -0.47294773     0.45484867
Ti     -5.86723730     6.80555170    -7.80786569     0.32108323    -3.23793326    -0.72831165
Ti     -7.69370271     4.34710847    -7.65808385     0.28525892     0.12810065    -1.03317996
Ti     -7.74929716     4.42254334    -3.76071947    -0.21024013    -0.94042622     0.57342674
Ti     -3.79393419     4.43839558    -7.62375979    -0.11707019    -1.27047669    -1.31881371
Ti     -3.97836481     4.36141823    -3.76863504    -0.32524107    -0.02063215     0.57220911
Ti     -2.12724903     0.03649401    -2.10388417    -0.60829294    -1.21001643     0.06323845
Ni     -5.83409942     2.33078794    -8.09555094     0.15311163     0.30025464     0.24995862
Ni     -5.90790257     2.17643082    -3.99567541    -0.91667614     0.22625452     0.27989588
Ni     -9.75343683     6.55486443    -7.86454501    -0.87646581     0.07878043    -1.04630228
Ni     -9.70042787     6.47645182    -4.12645625    -1.08701589    -0.32406917     0.66039195
Ni     -2.00083199     2.24119599    -7.97318605     0.95604002    -0.22762618     0.19449897
Ni     -5.91646185     6.58270919    -3.85930938     0.72803592    -0.19581221    -0.94283948
Ni     -5.97580780     8.64812802    -5.81488414     0.89536257     1.00573660    -0.68424782
Mo     -6.00256427     0.08028921   -10.27098300     0.20285386    -0.39584880    -0.81034919
Mo     -9.80250121     8.75472501    -6.35220043    -0.13729238    -0.14309453    -0.52557789
O      -1.96941305     1.93209427    -1.96387730     0.82323129     0.20200007     0.07588148
O      -2.00820451     1.84864351    -5.95400069    -0.34487309    -0.77304103    -0.39535763
O      -5.90020749     6.76994920    -2.02720548     0.04799170     0.58667344     1.22066215
O      -5.80420067     6.76410528    -5.85166314    -0.94073673     0.73851207     0.29319662
O      -5.95887911     2.02178588   -10.05286512     0.85712276    -0.23573254    -0.35803319
O      -5.94402397     1.90607538    -5.91639978     0.81750760    -0.07341019     0.23276457
O      -9.78779623     6.97530366    -9.83765741     0.58380179    -0.41127313     1.12682964
O      -9.72067141     6.86892133    -6.05886048    -0.37067644    -1.36076943     0.90155456
O      -4.00581216     2.29101973    -3.88509944     0.92784198     0.57603397    -1.08245496
O      -3.88853521     2.47164459    -7.98028704     0.08467705     0.15484268     0.46711007
O      -7.85691253     2.42092448    -3.99131258    -0.15288320    -0.07890199     0.11121972
O      -7.82984196     2.44745545    -8.05678519    -0.00758703    -0.67335889     0.84673027
O      -3.79319753     6.29069590    -4.00188237    -0.24309209     0.78116281     0.87560092
O      -3.96390587     6.32874280    -7.95402645    -0.17197896     0.91744788     0.02904494
O      -7.82855695     6.41079235    -3.81989518     0.31097887    -0.53741299    -1.07126440
O      -7.88544548     6.29473672    -7.80771584     1.30586028     0.42121020    -0.48069093
O      -4.00017613     4.41190091    -2.00192873     0.24929805    -0.09372460    -0.47064727
O      -3.85425147     4.53718571    -5.89245954     0.12660055    -0.76263302     0.48509794
O      -7.82171580     4.36726821    -9.94906593    -0.39339576     0.17254628     0.00181606
O      -7.92838485     4.25687156    -5.96360868     0.13162674     0.16438042     0.91357726
O      -3.92530650     0.10648389    -2.10374539    -0.79514794    -0.05183403     0.51258711
O      -7.93531807     8.70999346    -5.95977949    -0.48728187     0.28091102    -0.34842278
O     -11.56406410     8.68712032    -5.97282942    -0.13052922     0.21853982    -0.35892838
O      -7.75856243     0.03264433   -10.03396529    -0.34146119     0.23780597    -0.25256283
O      -2.03423270     4.08745772    -3.91640949     0.99396617     0.07510485    -0.51194553
O      -9.77168228     4.54295464    -4.09001724     0.66370565     0.48232397     0.20776727
O      -5.85675103     4.34131426    -4.09817047    -0.82212907     0.11751489     0.06168890
O      -5.74823854     4.28663911    -7.94520632    -1.63393716    -0.30003345     0.28072302
O      -1.91894711     0.18143942    -3.92183118     0.35629384     0.22356070    -0.51795606
O      -5.91408372     8.49645928    -7.93810977    -0.00029492     2.63045925    -0.23549601
O      -9.69212517     8.33361586    -4.06097297    -0.40865148     0.60598046     0.36164204
O      -5.84026992     0.40441962    -8.19328072     0.02094328     1.27171674     1.10225744
