# total energy = -630.38600845 eV

CRYSTAL
PRIMVEC
        0.00279571     0.02951795    -7.98606283
       -7.83802570     0.01298533    -3.99532603
       -3.92160916     8.71933433     0.00634407
PRIMCOORD
56 1
Li     -4.02841763     2.16810563    -2.01401573     0.48508373     0.07959979     0.43551870
Li     -4.01817856     2.17945635    -6.11148297     0.50359502     0.26143841     0.81462031
Li     -7.97118947     2.05397992   -10.05040489     0.72323049     0.42974341     0.11432974
Li     -7.97424127     2.39845246    -6.05935613     1.15653485    -0.33900842     0.86882209
Li     -4.00163131     6.48160972    -2.03053353     0.44585282     0.36964417     0.30366896
Li     -3.94205224     6.48508335    -5.90571593     0.13732527    -0.15977437     0.29595926
Li     -7.94261134     6.48495308    -9.92961655     0.80011681    -0.15279968    -0.12677676
Li     -7.80773685     6.46918996    -5.80242780    -0.10574268    -0.13295729    -0.37942076
Ti     -1.97040727     2.35446040    -3.99231495     0.11917972    -1.20572549    -0.85741196
Ti     -5.87915576     6.80994921    -8.01881429    -0.14296814     0.53716751    -0.27752435
Ti     -7.77525702     4.44560049    -7.82646372     0.09966822    -0.28616664     0.96255142
Ti     -7.80896504     4.28936977    -3.76577350    -0.17405495    -1.42146032     1.53286857
Ti     -3.87608483     4.41039015    -7.74158866    -0.75822510    -0.09518001     1.46955364
Ti     -3.99536823     4.38235970    -3.64962690     0.24745390     0.52951371    -2.30967849
Ti     -5.85488234     8.72233304    -2.24077421     1.82718967    -0.47588949     1.10822646
Ni     -5.94895029     2.35084747    -8.09201948     0.22929575     0.61158308     0.38804209
Ni     -5.83794954     2.25749404    -4.04024745    -1.50773381     0.49237525     0.31877864
Ni     -9.78632816     6.51353222    -7.92381311    -0.27265043    -0.05003107     0.22384493
Ni     -9.85650575     6.35037353    -3.87756491    -0.39665013     0.25233975    -0.48707393
Ni     -2.06063614     2.25868299    -7.92907724     1.15822520    -0.72470438    -0.40476205
Ni     -5.93189691     6.40600359    -3.98239134     0.41388319     0.53650193     0.14357472
Ni     -5.83004084     8.63956463    -5.94595877    -0.48071299     2.48224424    -0.25034729
Mo     -9.84348768     8.68037278   -10.20636768     0.28797655     0.44441342    -1.92261691
Mo     -5.74699386     0.09136267    -6.28439665    -1.18635243     0.11522253     0.67442872
O      -1.84522715     1.94472789    -2.01841509    -2.30665686    -0.56532617    -0.23449602
O      -1.96467571     1.81500049    -5.95068538    -0.31555939    -0.28000323    -0.38656743
O      -5.90619015     6.65238472    -1.96595955    -0.71762990     0.68596535    -0.97871067
O      -5.82285344     6.83811609    -5.98479909    -0.59305781    -0.74831854     0.78880554
O      -5.87218647     2.09544112   -10.02046635    -0.33429291    -1.40446710    -0.52743647
O      -5.97633678     2.07261963    -5.93057282     0.68096891    -0.72475020    -0.90372595
O      -9.73451765     6.69749456    -9.95814100    -1.32917285     1.41045436     0.51608622
O      -9.73294634     7.00214338    -5.91631829    -0.11446609    -1.19929380     0.06384063
O      -3.91201079     2.43812892    -4.04305464    -0.10353885    -0.14690798     0.36796273
O      -3.98033310     2.49510950    -7.93943902    -0.24739811    -0.64024210    -0.64834571
O      -7.89450951     2.32902536    -3.96286469    -0.07452503     0.27205391    -0.50548317
O      -7.90141747     2.36415994    -7.99010944     0.65479970     0.59264151    -0.20724928
O      -3.84949291     6.31289671    -3.90754155    -0.04565673     0.19280026    -0.25515111
O      -3.99044561     6.35406681    -8.08894702     0.61746837     0.40299810     0.90389972
O      -8.01756913     6.17060584    -3.91299922     0.95616410     1.01657863    -0.22817122
O      -7.83641703     6.46346035    -7.90308667    -0.00525030    -1.13154918    -0.26170607
O      -3.92466222     4.38354745    -1.94687291     0.33243809    -0.01674570     1.30214343
O      -3.84858793     4.55624870    -5.95168255    -0.44123829    -0.40067471    -1.28220704
O      -7.97726523     4.16099292    -9.94044311     0.03960318     0.96763063    -0.58302283
O      -8.00427511     4.30198961    -6.00947492     0.58889830     0.63267835    -1.23173323
O      -7.99177767     8.67444533    -2.24217461    -0.56099606    -0.05368670     0.94888978
O      -3.90126296     0.14169717    -6.18899256    -1.63136704    -0.50884032     0.35806984
O     -11.73310277     8.69102680    -6.19001382     0.60520282    -0.15980489    -0.10151665
O     -11.70897084     8.70280967   -10.08754117     0.96637580    -0.40765593     0.47740260
O      -1.97817941     4.18812794    -3.98763601    -0.17885244     0.82745697    -0.05255276
O      -2.00830171     4.16035936    -7.99224549     0.67741177     0.23014397    -0.19345495
O      -5.87778248     4.23304603    -3.95814314    -0.61236347     0.14696121    -0.38556627
O      -5.89818180     4.34925178    -8.09518689    -0.33071591    -0.17881194     0.45141918
O      -2.10462175     0.22389035    -3.99572540     0.26469094    -0.20082612    -1.27671531
O      -5.96145999     8.60820650    -8.19783125     0.22398080     0.00357639     0.84079020
O      -5.92342226     0.42526297    -4.14602182     0.12669207    -0.66206226     1.41075267
O      -5.83489035     0.51453645    -8.09308301    -0.34797525     0.04981709    -0.81244148
