# total energy = -630.94481673 eV

CRYSTAL
PRIMVEC
        0.00279571     0.02951795    -7.98606283
       -7.83802570     0.01298533    -3.99532603
       -3.92160916     8.71933433     0.00634407
PRIMCOORD
56 1
Li     -3.93337219     2.23836673    -1.96106633     0.18506623     0.35654724     0.14390456
Li     -3.94271604     2.17733925    -6.14801369    -0.14271200    -0.20871191     0.60397423
Li     -7.83230217     2.28805508   -10.07990655    -0.05667875     0.35117695     0.31342539
Li     -7.98360342     2.06228087    -6.04658756     0.92685589    -0.04699461     0.62311845
Li     -3.84408194     6.33032342    -1.82575232    -0.17034920     0.00102856    -0.65896944
Li     -3.85548702     6.36642166    -5.80334793    -0.03853331     0.33133145    -0.60590987
Li     -7.94569358     6.46856684    -9.98993880     0.70383201    -0.57827667     0.17878777
Li     -7.86446869     6.74899805    -5.82242378     0.38945409     0.00203714    -0.55245269
Ti     -1.97161943     2.31056627    -4.03486736    -0.42968014    -0.07883483    -0.25474982
Ti     -5.85571945     6.80109976    -7.92116957    -0.05581268    -0.36104386     0.25357632
Ti     -7.62840329     4.37965804    -7.57432608    -0.04272800     0.12194524    -1.94595092
Ti     -7.89233862     4.35049524    -3.87410099    -0.45070536    -0.18568628     1.49656102
Ti     -3.87923535     4.41561112    -7.69652626    -0.02965993    -0.36889776    -0.71521365
Ti     -3.99183740     4.40067001    -3.77666250    -0.82088105    -0.99031638     0.18965738
Ti     -6.11615849     8.72572894    -2.15774495     1.11951453     0.15042828    -0.62962653
Ni     -5.91175236     2.01046792    -8.06348359     0.25490996     0.42489718     1.14637355
Ni     -5.87390213     2.32721312    -4.09445444    -0.20613422    -0.63931623    -0.59822993
Ni     -9.72594931     6.32871046    -7.98417913    -0.61388846    -1.03859472    -0.63822423
Ni     -9.73675711     6.65912232    -3.96992685    -0.58188117     0.27922275     0.13152516
Ni     -1.91774266     2.14911415    -7.92603557    -0.94803565    -1.05231442    -1.41319791
Ni     -5.95012769     6.48609531    -3.95198727     0.31698257     0.60206480    -0.18906753
Ni     -1.97429520     0.11353846    -5.98419997    -0.30106540    -1.37094039     0.07246910
Mo     -5.97755443     0.10548821   -10.19078829    -0.70306906    -1.46257441    -1.13746230
Mo     -9.84521631     8.67976965    -6.28033823     0.65639422     1.08099689    -1.78790070
O      -1.97124658     1.98652010    -2.09609118    -0.27977937    -0.33576351     0.16868975
O      -2.00849976     1.89473090    -6.08300955     0.38138780     0.58476845     0.70880774
O      -6.04465042     6.78421312    -1.96929178     1.04560542     0.46536766    -0.16484296
O      -5.86578750     6.93226658    -5.89751672     0.02197794     0.42839586    -0.49235199
O      -5.81266537     1.97328078    -9.92971604    -0.46782903     0.45248805     0.47881338
O      -5.91272001     1.90245673    -6.09106391    -0.23623776     0.93131151    -0.22378676
O      -9.70081319     6.77533819   -10.11656310    -0.97645057     0.93067017     0.30907170
O      -9.75639234     6.83102940    -5.85433628    -0.66443552    -0.79774745     1.08234711
O      -3.94929203     2.38990532    -4.15351885     0.90479510     0.85617078     0.80981186
O      -4.08293148     2.44025611    -8.00806635    -0.01779069    -0.17463515     0.15641270
O      -7.79767879     2.32024429    -3.99570930     0.12439247     0.58175040    -0.58594440
O      -7.87847117     2.39517741    -8.05050782     1.13809805     0.52197367     0.42257470
O      -3.92536857     6.25386267    -3.97190863     0.04596008     0.62667765     0.54009788
O      -3.87086756     6.45638852    -7.90958770     0.07670470    -0.21061338    -0.08954980
O      -7.86023910     6.42046925    -4.03207470     0.27154972    -0.95161288     0.67822746
O      -7.84088816     6.33578805    -7.90725604     0.46476454    -0.14434444     0.07098618
O      -3.93672639     4.29622883    -2.01278570     0.24331755     0.40230507    -0.35628218
O      -3.68822958     4.40741028    -5.95361841    -0.43800513    -0.01654993     0.11106250
O      -7.91401279     4.31891580   -10.10360185     0.19839472     0.48970931     0.00254730
O      -7.81692882     4.45006032    -5.86776635    -0.16501237    -0.28180671    -0.58083690
O      -3.95244370     0.12860087    -2.05904172    -1.24246279    -0.31381807     0.31267259
O      -4.09166738     0.10958455    -6.06441875     0.33926579    -0.34179984    -0.17043289
O      -7.69874668     0.10426181    -6.07204997    -1.03740630    -0.53918239     0.28713963
O      -7.74103953     0.13986524   -10.05312152     0.24019284    -0.31366936     0.07829483
O      -9.61305541     4.32997028    -7.98586683    -1.18507783     0.17234218     0.26850110
O      -2.06262088     3.93517477    -8.08964779     1.48894697     0.85288594     0.00829019
O      -5.91526860     4.25789310    -4.12952381     0.66470265    -0.32359717     0.28601899
O      -5.78327908     4.79266043    -8.00526580    -0.74714192    -0.13608883     0.54900977
O      -1.95957016     0.35307164    -4.04971391    -0.02190621    -0.18067352     0.25889694
O      -5.88731000     8.71351065    -8.06600795     0.23194289    -0.23803771     0.28155338
O      -5.82437436     0.35312416    -4.02117890    -0.15177299    -0.02294049     0.58065622
O      -9.92095101     8.11848169    -8.09131762     0.66925547     0.82484079     0.10717257
