# total energy = -630.72752652 eV

CRYSTAL
PRIMVEC
        0.00285542     0.02004370    -7.95977623
       -7.82940539     0.00763210    -3.98158109
       -3.91729101     8.74642787     0.01461334
PRIMCOORD
56 1
Li     -3.91324850     2.13257118    -1.93769570    -0.17712695     0.34166270    -0.07656147
Li     -3.92536488     2.23970872    -6.07823952    -0.23070797    -0.27660664     0.57834708
Li     -7.69126999     2.24577294    -9.90461411    -0.96752284     0.03053540     0.05544346
Li     -7.83121878     2.09864669    -5.86726395     0.02689846     0.04217142    -0.07703385
Li     -3.84766958     6.67294513    -2.00446903    -1.17916009    -0.10334255     0.67164653
Li     -3.87252203     6.47654159    -5.86815320    -0.23313614     0.01573372    -0.04032982
Li     -7.89770534     6.53354270    -9.93988220    -0.05763077    -0.25831736     0.32312642
Li     -7.88355137     6.31329857    -5.96697989    -0.04984152     0.34607724     0.73320128
Ti     -2.01392885     2.26336503    -4.07031810     1.07047984    -0.84907457    -0.21012669
Ti     -5.84415843     6.68882085    -7.91399600     0.46564016     0.19410664    -0.28855594
Ti     -7.72826871     4.35125227    -7.64617148    -0.01222748    -0.80590745    -0.11475244
Ti     -7.80982753     4.39747004    -3.64256626     1.18443855    -0.26513002    -0.94952917
Ti     -3.71164430     4.34250371    -7.71812847    -0.44320613     0.20992190     0.67706851
Ti     -3.78542801     4.46912359    -3.64590049    -1.44528976    -0.62661866     0.41219527
Ti     -6.09262887     8.71290816    -2.25232228     0.67457552    -0.54732455     1.55197139
Ni     -5.83821102     2.26402182    -7.95867760    -0.08666631    -0.03945952    -0.40455509
Ni     -5.95266010     2.40494280    -4.03294540     0.71014580    -0.20715874     0.73395312
Ni     -9.83632116     6.72498233    -7.93137852     0.40435086    -0.42103875     0.62022691
Ni     -9.77402596     6.48795052    -3.96536804    -0.22936355     2.49937019    -0.41049843
Ni     -1.93274798     2.06770292    -7.97864936    -0.20738262    -0.45779373     0.39345221
Ni     -5.84682685     6.53880116    -3.98557252    -0.39238361    -0.48312801     0.40360436
Ni     -5.91806875     8.73086489    -5.94047661     0.20652477    -1.02900773    -0.48061566
Mo     -5.94233950     0.06626796   -10.29963659    -2.21128652     0.64487831     0.41824264
Mo     -9.79756535     8.67358281    -6.31640028    -0.63992211     0.18783939    -1.22195187
O      -1.89085745     1.83603608    -1.96200703    -0.89068521    -0.08891937    -0.23842887
O      -1.93620659     1.80161998    -6.05488515    -0.55896535     0.68558432     0.59612645
O      -5.92496335     6.78109090    -1.98608097    -0.03506494     0.52361956    -0.31192288
O      -5.84353223     6.85401775    -5.86181044    -0.42657229     0.18439195    -0.56404945
O      -5.87298825     2.05354430   -10.01639164     0.02659280    -0.63472526    -0.72121578
O      -5.85458876     1.81352681    -5.86331039    -0.73996940     1.73030442    -0.00744906
O      -9.82257079     6.93451124    -9.71296830     0.52048392     0.13924012    -1.16771464
O      -9.91015254     6.74544425    -6.08079948     1.91115232    -0.07273272     0.67883487
O      -3.90532911     2.49594344    -3.93366442    -0.45176686    -0.51233446    -0.44151452
O      -3.82822102     2.34607451    -8.03118026    -0.27328708     1.49136466     1.04919593
O      -7.94347504     2.43730419    -3.90339461     1.13350023    -0.00543852    -0.19321709
O      -7.91003577     2.29173140    -7.86401576     0.86529569     1.02839325    -0.83801958
O      -3.86991379     6.35709341    -3.85293455    -0.38145975     0.87097122    -0.98993737
O      -3.95106159     6.48739465    -7.96985752     0.38420570    -1.34715131     0.49470364
O      -7.81793549     6.36910468    -3.93544394     0.16928196    -0.22777595    -0.24407774
O      -7.83453971     6.30330016    -7.97360218    -0.40077960    -0.10743805     1.00172853
O      -3.96580036     4.40056330    -1.88164336     0.43886861     0.07695896    -0.20552971
O      -3.89629012     4.47980522    -5.89703464    -0.11765224    -0.54881032    -1.91996407
O      -8.00745220     4.37730973    -9.87534881     0.52621993    -0.36133885     1.10504589
O      -7.99249414     4.19328660    -5.88348572     0.40072251     1.02368067    -1.04098385
O      -4.06591330     0.11466943    -2.11584973     1.16293415    -0.39478195    -0.22101053
O      -4.17447704     0.07185149    -5.81478252     0.94034046    -0.84263425    -0.76283587
O     -11.65160903     8.73726636    -6.12317561     0.01571666    -0.18765817     0.29332473
O      -7.74230550     0.04389991   -10.03541593     0.64673003     0.39293120    -0.05547690
O      -1.92995384     4.09842608    -3.97226273     0.01057843     0.41221990     0.04346282
O      -9.69422232     4.78806168   -11.77698130    -1.68859292    -1.85122611    -0.72800536
O      -5.83293836     4.37595425    -3.95935248    -0.40229564     0.36241631     0.06850668
O      -5.85957127     4.41106125    -7.96307817     0.10891870    -0.65339075     0.60463196
O      -2.08517386     0.10074958    -4.04630294     0.39708787     0.80218240    -0.66593790
O      -5.99324449     8.49680707    -7.94788941     0.09099682    -0.09245111     0.21178336
O      -9.89243542     8.36463421    -4.07011935     0.19952450    -0.07491872    -0.08961475
O      -5.79851042     0.41194310    -8.19972839     0.00619051     0.38126621     2.16738617
