# total energy = -630.60111479 eV

CRYSTAL
PRIMVEC
        0.00279571     0.02951795    -7.98606283
       -7.83802570     0.01298533    -3.99532603
       -3.92160916     8.71933433     0.00634407
PRIMCOORD
56 1
Li     -3.94366906     2.50247872    -1.89185576     0.10170439    -1.02771269     0.08874128
Li     -4.05118751     2.03566854    -5.89733981     0.63628405     0.08269955    -0.36071105
Li     -7.87463850     2.41950376   -10.08503233     0.28159928    -0.22558161     0.66370912
Li     -7.87833076     2.39291413    -5.82806836     0.14889950    -0.11963575    -0.24214118
Li     -3.97174103     6.37314741    -1.92160039     0.46970239    -0.05457879    -0.21837370
Li     -3.81184362     6.24296903    -6.02605438     0.32897110     0.33785656     0.71399018
Li     -7.89666444     6.41629615    -9.90318235     0.14111715     0.31654318     0.02564955
Li     -7.85312239     6.51381520    -6.03946763    -0.42123655    -0.16289133     0.61374713
Ti     -1.95043481     2.25870564    -3.92664011    -0.44191474    -0.18945054    -0.63651014
Ti     -5.76842882     6.62007162    -7.82873297    -0.02488657     0.83689962    -1.69517647
Ti     -7.79573067     4.42616112    -7.86745173    -0.97710420     0.94167606     2.89919996
Ti     -7.91267917     4.45160632    -3.79153790    -0.21341464    -0.41744080    -0.92401018
Ti     -3.79184781     4.25274634    -7.73336014    -0.24212670     0.39493830    -0.32034884
Ti     -4.12044038     4.35718633    -3.81050426     0.24603249     0.11594911    -0.64310841
Ti     -6.12398012     8.63939026    -2.04608505    -0.82768891     0.68784079    -0.58635731
Ni     -5.90817050     2.37048383    -7.93998454     0.29610509    -0.02876485    -0.08186652
Ni     -5.80598330     2.21104500    -4.08343295    -1.78311392    -0.40985575     0.91569162
Ni     -9.90574569     6.61389136    -7.90852472     0.46907721    -0.14159255    -0.81998939
Ni     -9.75189160     6.56999315    -4.01525376    -0.10123204    -1.03973895    -0.66043582
Ni     -1.89049778     2.01384027    -7.84299486    -0.14661314     0.22600493    -0.68375949
Ni     -5.82951571     6.63474623    -4.08392493    -1.02298541    -0.36438136     1.04145098
Ni     -5.86110793     8.65990192    -5.99253548    -0.67050295     2.98045510     0.85240676
Mo     -6.01052012     0.10792375   -10.22468134    -1.28581310    -0.55488066    -2.24321617
Mo     -9.81091950     8.66717194    -6.43774136    -0.58520642    -0.87046624     1.73454070
O      -2.06391056     1.83766787    -1.91181563     0.80605879     0.57286388    -0.02597750
O      -1.95789192     1.82538396    -5.95102467     0.20810038    -0.54469674    -0.18635532
O      -5.80218957     6.80349123    -1.90254405    -0.45695694    -0.56890684    -0.08310854
O      -5.96939826     6.88725570    -5.96565601     1.05973536    -1.34359145    -0.13659526
O      -5.83016227     1.99426870   -10.09965365     0.07127155     0.48838686     0.08478914
O      -5.97685598     1.98976632    -5.94227011     1.21105431    -0.43291484    -0.18459729
O      -9.76454079     6.90614775    -9.87593450    -0.83098094    -0.32768291     0.85823947
O      -9.86541370     6.69819190    -6.04484981     0.14138338     1.13281037    -0.09826129
O      -3.95799021     2.36795492    -4.01472326     0.50850162     0.19963346     0.25307679
O      -3.80385031     2.37960820    -7.83455749    -0.58513952    -0.41290382    -0.88946444
O      -7.73789486     2.45521154    -3.94065209    -0.59078309    -0.04094122    -0.25809644
O      -7.88797407     2.52934001    -7.91434300     0.50616750    -1.69100807    -0.56223019
O      -3.96051106     6.33632822    -4.05975717     0.81350150    -0.18379482     0.23960183
O      -3.85965674     6.38714325    -7.96595994    -1.10190824    -0.47936811     0.64345534
O      -7.81403584     6.37112140    -4.09658007    -0.17686179     0.43067988     0.91620740
O      -7.89959583     6.38701958    -7.90809944     0.41464511    -0.45671171    -0.71931824
O      -3.80168820     4.29497492    -2.07449703    -0.53752415     0.62660674     0.35530920
O      -3.78181339     4.27651559    -5.99596975    -0.06682626     0.68875854     0.87513259
O      -7.72016465     4.38769517    -9.99097784    -0.25940796     0.16117136     0.54661016
O      -7.78591204     4.33409688    -5.99666102    -0.34249870     0.30654569    -2.03309670
O      -7.99098841     8.67825690    -9.92826843     1.38171504     0.12698715    -0.46266858
O      -7.95505074     8.68024818    -6.05828241    -0.84052758     0.28862783    -0.19720939
O      -7.64609791     0.08101213    -6.09589430     0.11578273    -0.64712843     0.04988723
O      -7.84847334     0.10350251   -10.07511523     1.80481770    -0.23661083     0.15971022
O      -1.99695734     4.11283298    -4.14755687     0.28295466    -0.06631513     0.47858571
O      -9.80187302     4.65592734    -4.13375479     0.72113293     0.28960030     0.57153808
O      -5.98990111     4.64609772    -4.09295842     1.63300338     0.01551288     0.02200144
O      -5.80947736     4.42831861    -7.84638604     0.20695599     0.14679446    -0.83717579
O      -1.88549153     0.15379253    -3.96735869    -0.44909424    -0.44084881     0.61417650
O      -5.78600647     8.53769100    -7.93405480    -0.30146741    -1.00747902    -0.89822791
O      -9.84313840     8.41419645    -4.06729213     0.33397750     0.51732545     1.05684716
O      -5.93972170     0.46731210    -8.19944282     0.16463926     1.17456623     0.44806903
