# total energy = -630.94063623 eV

CRYSTAL
PRIMVEC
        0.00279571     0.02951795    -7.98606283
       -7.83802570     0.01298533    -3.99532603
       -3.92160916     8.71933433     0.00634407
PRIMCOORD
56 1
Li     -4.07408087     2.39171680    -1.89187526     0.57888090    -0.13316586    -0.33656428
Li     -4.02258761     2.22493816    -6.09105051     0.26002281    -0.13602802     0.33569006
Li     -7.83340141     2.21696935    -9.83066428     0.58424277     0.08159450    -1.18306069
Li     -7.77758127     2.43501022    -5.93128745    -0.45440091    -0.04942017    -0.02862761
Li     -3.72948496     6.38583573    -1.95094026    -0.42239547     0.26782007     0.00740519
Li     -4.01072639     6.49645089    -5.89453371     0.62198230     0.16374094     0.09455307
Li     -7.80384827     6.40051831   -10.03039114    -0.01457336     0.65488216     0.73774271
Li     -7.77348132     6.74660970    -5.89441054    -0.26911885    -0.33071356    -0.11942429
Ti     -2.01371034     2.23120133    -4.14642276    -0.71079517    -1.59378951     0.76416743
Ti     -5.77644893     6.55540545    -7.90079772    -1.41720478    -0.00933341    -1.48634643
Ti     -7.92012780     4.39840645    -7.79508720     0.63260792     1.35944947    -0.20112865
Ti     -7.90529640     4.42962793    -3.73400088    -0.15974365    -1.31464155     0.17467671
Ti     -3.92033175     4.39650982    -7.74038047     0.90841845    -1.13606379    -0.59672684
Ti     -4.09783279     4.42046673    -3.79715147     0.28393383    -0.80363304     1.46588577
Ti     -1.96941585     0.06679094    -1.87714411    -0.80330746     0.26378770    -1.97953704
Ni     -5.87964207     2.06222400    -8.02026879    -0.36362436     0.41605265    -0.03468546
Ni     -5.95752783     2.27159933    -4.08993336     0.79727626     0.12785107     0.64976758
Ni     -9.84138435     6.39738878    -8.02565061     0.57809002    -0.99513749     0.05707931
Ni     -9.76723786     6.62738749    -3.92378675    -0.23608365    -0.04943137     0.25360033
Ni     -1.89504584     2.11725631    -7.96105011    -0.34879842     0.80835414    -1.00736266
Ni     -5.88271566     6.54216758    -3.95398158    -0.61080151     0.51420775     0.12245970
Ni     -1.96600173     0.10002857    -5.94574096     0.26505899    -1.16629862    -0.45973307
Mo     -9.86168648     8.68298598   -10.27836144     2.41810155    -0.52869804    -0.14244485
Mo     -5.81652812     0.08114718    -6.33699655    -0.98059142    -1.65571921     0.23063155
O      -1.88839566     2.05067859    -1.84368076    -0.24799577    -1.08409432    -0.92462691
O      -1.92921104     1.85847445    -6.09986172    -0.05872133     1.85468185     1.28484807
O      -5.87251625     6.83962219    -1.99164132     0.43114427     0.34492728    -0.22158354
O      -5.82552177     6.97678896    -6.02903056    -0.83340545    -0.04017229     1.12472118
O      -5.88677609     1.90422171    -9.95583466    -0.11278716     0.32332918     0.82390644
O      -5.95444220     1.95374653    -6.11179768     0.49963698     0.99685637     0.31726493
O      -9.85525863     6.72052065   -10.02200269     0.36821481     0.16352299    -0.26713378
O      -9.70333496     6.82927053    -5.74365600    -0.03110252     0.49301571    -1.09316960
O      -3.89809956     2.31360182    -4.05434336    -0.37971319     1.67890041    -0.10320754
O      -4.07798173     2.37662915    -8.00511803     0.72992880     0.77170336     0.55068955
O      -7.81246765     2.41997946    -3.94825845     0.00910008     0.18393885    -0.14543734
O      -7.79191601     2.47106775    -8.02140519    -0.72172938    -0.36231312     0.17962886
O      -4.03137161     6.31216078    -3.99398063     0.94592825     0.29386528     0.34746523
O      -3.86943545     6.39959231    -7.89376165     0.32059510     0.24897952    -0.65235051
O      -7.86524190     6.31062343    -3.94731076     0.61394078     0.95509021    -0.41148670
O      -7.83135025     6.37650587    -8.05469310    -0.10543861    -0.35317588     0.78691151
O      -4.03449199     4.42338434    -1.97752717     0.28674542    -0.09017047    -1.24348470
O      -4.02716871     4.56756992    -5.99493515     0.44328351    -1.03174537     0.09181268
O      -7.75017336     4.49261824    -9.94494879    -0.12869080    -0.61494914    -0.45559372
O      -7.70584775     4.41977119    -6.07094990    -0.05021502     0.00032048     0.57807317
O      -7.92531335     8.70113303   -10.02075911    -0.20284347     0.17125558    -0.04135575
O      -3.98524859     0.16033776    -6.08459610    -0.39921147    -0.35501968     0.01632958
O     -11.56025036     8.69875077    -6.05870685    -0.61470313     0.19061875    -0.31665692
O     -11.58756391     8.71831503    -9.97691839    -1.76821141     0.17153130     0.51415530
O      -2.04203318     4.33773214    -3.98975731     0.39164710    -0.00829039    -0.30841429
O      -1.93697541     4.10586421    -0.07208285    -0.69791472    -0.36396707     0.56214034
O      -5.92586798     4.24056277    -4.10982394    -0.55122651    -0.82914819     0.14282490
O      -5.81070311     4.69665072    -8.04075313    -0.54437001     0.29424264     0.21202724
O      -2.06795413     0.37250841    -3.97360172     0.81476094     0.47834509     0.26355928
O      -5.80482665     8.68193251    -8.07097790     0.09577734    -0.02008922     1.58552676
O      -6.00925975     0.32698919    -4.06575900     0.60790686     0.46611137    -0.52797224
O      -9.75846452     8.18058019    -8.06382601    -0.02119112     0.46661489    -0.03660035
