# total energy = -630.86879407 eV

CRYSTAL
PRIMVEC
        0.00285542     0.02004370    -7.95977623
       -7.82940539     0.00763210    -3.98158109
       -3.91729101     8.74642787     0.01461334
PRIMCOORD
56 1
Li     -3.85293498     2.23791583    -1.96940453    -0.15065740     0.18748665     0.34145135
Li     -3.85888761     2.22781458    -5.91747236    -0.28387523     0.00774295    -0.59501138
Li     -7.77494907     2.23316937    -9.99859160    -0.35022263     0.49270235    -0.03105208
Li     -7.63111364     2.26282826    -5.89373108    -0.82999035     0.10939384    -0.12033153
Li     -3.91460281     6.62311191    -1.88820095     0.25375215    -0.43023113    -0.59864884
Li     -3.81939238     6.46040556    -5.79791684    -0.66763940    -0.17132959    -0.13209066
Li     -7.94596441     6.59575315   -10.02399656     0.30843358    -0.07978832     0.83650922
Li     -7.82569959     6.36454790    -5.87953784    -0.17573583     0.41585367     0.05571568
Ti     -1.96866360     2.29912777    -4.03888025     0.96066137     0.25760306     0.20467030
Ti     -5.77065924     6.73008098    -7.92339262    -1.90942982     0.04400297     0.10763786
Ti     -7.73600257     4.39984297    -7.68430584    -1.12691776     0.46406959    -0.40163527
Ti     -7.78025358     4.35810276    -3.83925513    -0.29241833    -0.10317415     1.43575628
Ti     -3.88253294     4.41672384    -7.66497679     0.98661117    -1.84134864    -1.48422933
Ti     -4.12350311     4.40455404    -3.78074891     0.20881616     0.56478729     0.77354465
Ti     -6.04537262     8.74110186    -2.15559241    -0.99582641     0.38606665    -0.44750569
Ni     -5.85776216     2.38651714    -7.98386333     0.52763156    -0.47862465     0.23713927
Ni     -5.79937469     1.98995809    -3.95277949    -0.69684532     0.03472763     0.02779300
Ni     -9.88532994     6.59896152    -7.85823576     0.74355908    -0.37401588     0.93263890
Ni     -9.69613474     6.42611580    -3.99581516    -0.74882251     0.86517357    -0.01900683
Ni     -1.88329247     1.96532676    -7.96156531     0.26418960     0.93041973    -0.70271107
Ni     -5.86924402     6.77020975    -3.96037375    -0.05209506    -0.02093867    -0.33343115
Ni     -6.03259291     8.69574809    -5.98046921     0.84522592     0.73527634    -0.22292940
Mo     -6.08603882     0.06990174   -10.14401013     0.09578212    -0.11147512    -1.65176092
Mo     -9.78336136     8.73912667    -6.33509634     1.26598267    -1.35923526     0.69327436
O      -1.79572076     1.90096784    -2.01401688    -0.90318611    -0.32786544     0.34803263
O      -1.92923902     1.77890856    -6.12194361    -0.83193277     0.68950384     1.18631200
O      -5.84165728     6.83706876    -2.05458183    -0.07018932    -0.00472149     1.36511006
O      -5.88033011     6.89561361    -5.90179550    -0.06337385    -0.47718914    -0.75695896
O      -5.87411861     1.98543540    -9.99598235     0.49556677     0.01122480    -0.31898620
O      -5.80404450     1.92813549    -5.85535343     0.51053419    -0.49231569     0.07689039
O      -9.87514140     6.92384603    -9.72999216     0.57090337     0.44529998     0.06392670
O      -9.80960454     6.74293454    -5.91006933     0.30758309     0.48967896    -1.07604076
O      -3.92049079     2.42401552    -3.95940615     0.06287819    -0.51384331    -0.14472730
O      -3.91188414     2.40579127    -7.98904450     0.14988593     1.16260252     0.34916158
O      -7.68445059     2.37558990    -4.03679895    -0.46457515    -0.38276711     0.38951638
O      -7.84310723     2.44774841    -7.83932435     0.70490266    -0.33506372    -1.22513090
O      -3.88242176     6.39781490    -3.89356686     0.17533259     0.10756866    -0.41318094
O      -3.94720731     6.36811205    -7.94052065     0.59042083     0.52947908     0.32042782
O      -7.81338172     6.43016587    -3.90402906    -0.57819825    -0.64461196    -0.67479933
O      -7.93505578     6.28049562    -7.92431886     0.69491576     0.33371642    -0.19848321
O      -3.96700656     4.42096767    -2.02954254     0.09515010    -0.32419752     0.09384299
O      -3.72088245     4.40519797    -5.95153589    -0.31979823    -0.00609921     1.31530337
O      -7.65214970     4.21356583   -10.02898112    -0.33179665     0.16753955     0.33615911
O      -7.91442268     4.29894925    -5.93736636     0.16653381     0.21427520    -0.06210832
O      -7.86109449     8.71348757    -2.14799910     0.24018253     0.48253886     0.59731347
O      -7.95859871     8.54531061    -6.08820279    -0.24527743     0.62343768     0.38366876
O     -11.54469247     8.64791511    -6.11523193    -0.89656160     0.36058618     0.41295584
O      -7.86286024     0.13636112    -9.98984578     1.17381705    -0.46523108    -0.20185419
O      -2.00343213     4.15521742    -4.06071444     0.48221281    -0.56031138     0.15741168
O      -9.73641953     4.53396930    -3.93753310    -0.01170061     0.71854644    -0.34490207
O      -5.92908371     4.94095196    -4.10284048     0.77239678    -0.94469322    -0.19792130
O      -5.82686525     4.54509229    -7.68683519    -0.12786775    -0.47257538    -0.96804912
O      -1.93403070     0.23006505    -4.09406517    -0.20018636    -0.68687392     1.21085515
O      -5.98986051     8.56572346    -7.94683324     0.56621558    -0.67540392    -0.82517283
O      -9.75853150     8.39801917    -3.95392662    -0.39092371    -0.37643725     0.35695991
O      -5.77133203     0.47656543    -8.11653439    -0.30881185     0.79645527    -0.45728920
