# total energy = -630.62636228 eV

CRYSTAL
PRIMVEC
        0.00285542     0.02004370    -7.95977623
       -7.82940539     0.00763210    -3.98158109
       -3.91729101     8.74642787     0.01461334
PRIMCOORD
56 1
Li     -3.86020397     2.15245380    -1.94055266    -0.53845432     0.31067367     0.48958242
Li     -4.06865346     2.06060154    -5.92328442     0.23219063    -0.02317558    -0.76160510
Li     -7.86657855     2.32119537    -9.95855376     0.40546636    -0.20940990     0.13393163
Li     -7.91551872     2.34158333    -5.84173893     0.11009969    -0.24982795    -0.01612245
Li     -3.95119327     6.42393101    -1.99385864     0.17722738    -0.02383677     0.19478054
Li     -3.74338169     6.59285620    -5.65685306    -0.22624415     0.07747582    -1.19295168
Li     -7.74155611     6.22043915    -9.89311233    -0.20929491     1.12541896     0.31640438
Li     -7.75117139     6.58123599    -5.82922155    -0.25415814     0.06427323    -0.15641859
Ti     -2.01686346     2.22692564    -4.09549698     0.86302466     0.26852465     0.54482623
Ti     -5.81137028     6.83968620    -7.76279216    -0.25707595     1.10439784    -1.11499984
Ti     -7.77086660     4.34001520    -7.64234929    -0.28348395     0.26279280    -0.68720009
Ti     -7.94337907     4.33255243    -3.71927181     0.65609111     0.34142167    -0.30269222
Ti     -3.91858797     4.41516960    -7.62330559     0.24533113    -0.98108157    -1.32039524
Ti     -3.98360989     4.34326084    -3.70165002    -1.17368932     1.50410557     0.07399189
Ti     -6.02457871     8.70797029    -2.14175171    -0.39915509     0.14305203     1.22866251
Ni     -5.88579412     2.34740992    -8.05445192    -0.21831289     0.34497147     0.11564195
Ni     -5.78989101     2.14502478    -4.00618492    -1.95380900     0.29752312    -0.21255819
Ni     -9.68737415     6.43250573    -7.82053945    -1.23521201     0.56688730    -1.20146890
Ni     -9.66975414     6.49201017    -4.13799360    -2.95001572    -0.09425313    -0.05196325
Ni     -1.99581626     2.18709791    -7.95354132    -0.63975031    -0.53893124     0.20463947
Ni     -5.88579940     6.54834780    -3.88158661    -0.20111102    -0.31523679    -0.35037045
Ni     -5.95973904     8.74683515    -5.97079528     0.45469456    -1.35825699     0.28909731
Mo     -5.91440368     0.04066362   -10.25927599    -0.74518716    -0.00000546     1.29534050
Mo     -6.00776039     0.04334731    -6.41571645     2.14772600    -1.09974234     0.18610500
O      -2.07401071     2.03377265    -1.95004042     1.25752585    -1.13731791    -0.66424800
O      -1.96163250     1.73635187    -6.07108659    -0.39140952     2.40419516     0.63937663
O      -5.87888832     6.76348229    -1.95960808     0.00765867     0.51936844    -0.03068074
O      -5.86378146     6.88714457    -5.80765800    -0.00259141     0.03872699    -1.03656822
O      -5.73868132     2.06827638   -10.12513760    -0.63125703    -1.01233369     0.27328972
O      -5.98593248     1.91290548    -5.89735043     0.21153692     0.20738970     0.64466560
O      -9.63062045     7.04423010    -9.62278751    -0.65038245    -0.49853821    -0.24690844
O      -9.68214653     6.79272861    -6.08317010    -0.79108036     0.53106345     1.52019107
O      -3.97111381     2.42009853    -4.07596961     1.05111970    -0.75903947     0.26386959
O      -3.98477861     2.45856769    -7.86074758     1.04439473     0.05863364    -0.36114134
O      -7.90465926     2.41251413    -3.89164137     0.43203980     0.05765921    -0.47284900
O      -7.88835650     2.34567316    -7.93805718     0.18134912     0.85795241    -0.26320636
O      -3.84890767     6.30920176    -3.95365494     0.74454107    -0.23496640     1.32172301
O      -3.96464662     6.37597019    -7.99368183    -0.35041168     0.04511960     0.77012586
O      -7.92443604     6.39881038    -3.95019729     2.22521136    -0.78446703     0.18430750
O      -7.81658534     6.40055517    -7.88331956     1.59089585    -1.21288270     0.48000198
O      -3.78992436     4.36420396    -1.95094788    -0.32175038    -0.07126741    -0.80185712
O      -3.79689066     4.40059066    -5.90841088     0.27282238     0.40923026     1.07590336
O      -7.75085857     4.43592814    -9.90828355    -0.27246718    -0.88894645    -0.00129752
O      -7.61766192     4.34808747    -5.90931920    -0.98013758     0.14549261     0.14685557
O      -7.84926177     8.76672359    -9.90700508     0.06023048     0.82866707    -0.49856417
O      -4.16217717     0.04271376    -6.15955670     0.59581770    -0.13608921     0.44865836
O     -11.66201547     8.71056995    -6.00853063    -0.88146881    -0.37794809    -0.02298272
O     -11.63019176     8.75495397    -9.97494928     0.78289705     0.29780066    -0.43764280
O      -1.91606296     4.13425163    -4.06570332    -0.15817928    -0.42086877     0.38009774
O      -9.81340771     4.63400885    -4.09771141     0.79371155     0.03509121     0.40680875
O      -5.93479925     4.63657185    -4.00211055     0.87318898    -0.15088409     0.43242420
O      -5.83668907     4.16657756    -7.84013039    -0.31484398     1.32447241    -0.64042862
O      -1.94196012     0.21582771    -3.97142234    -0.34690630     0.00403608    -0.69457042
O      -5.76347922     8.65532042    -8.05639351    -0.30199464    -1.50886510     0.70232183
O      -9.75400842     8.35501191    -4.02563997     0.11371897     0.41837895    -0.62882784
O      -5.95992342     0.58364701    -8.14108502     0.03748844    -0.88051124    -0.59403530
