# total energy = -630.38782429 eV

CRYSTAL
PRIMVEC
        0.00285542     0.02004370    -7.95977623
       -7.82940539     0.00763210    -3.98158109
       -3.91729101     8.74642787     0.01461334
PRIMCOORD
56 1
Li     -3.90135996     2.08384094    -1.90884661     0.03161901     0.86354873     0.20657007
Li     -3.93228238     2.15316743    -5.82653217    -0.18616260    -0.01805803    -0.79308444
Li     -7.80551473     2.25739276    -9.98422756    -0.75376000     0.52798381     0.12545760
Li     -7.87838387     2.44453489    -5.97472176     1.02208459    -0.29313005     0.59992101
Li     -3.85155592     6.27474211    -1.96978654    -0.13641268     0.10209407     0.31611963
Li     -3.80998636     6.51770768    -5.87453503    -0.46943774    -0.14783378     0.47536988
Li     -7.98053628     6.53684586    -9.92525557     0.27216221    -0.26824785     0.08746038
Li     -7.79105376     6.44964598    -5.84390639     0.04061844    -0.02061811    -0.06401562
Ti     -1.89659104     2.15212182    -4.07894002    -0.38259920     0.16321674     0.23248799
Ti     -5.86140466     6.80557169    -7.92678368    -0.34380607    -0.74087292     0.62357191
Ti     -7.80952756     4.34839851    -7.80652843    -0.16642160     1.03033137     0.98575988
Ti     -8.07623925     4.32676024    -3.78674272     1.50068121     1.07700905    -0.14298924
Ti     -3.99090052     4.44797089    -7.57449054     1.97497488    -2.34502552    -0.39998360
Ti     -3.99439839     4.33563355    -3.77927611    -0.92587159     1.13014680     0.64906178
Ti     -6.09611582     8.71269916    -2.17036854    -0.53180027     0.23247716     0.65170639
Ni     -5.86910527     2.36774155    -7.85098446     1.83046530    -0.20079628    -0.89581782
Ni     -5.82869027     2.23626515    -3.96197315    -0.55498250    -0.11910341     0.41297732
Ni     -9.82565757     6.61184270    -7.85915005    -0.11541751     0.33728490    -0.67492886
Ni     -9.81298247     6.54894407    -3.99425685     0.85227071     1.17983186     0.19945434
Ni     -1.89581459     2.02094094    -7.90803924    -0.35469503     0.29932094    -1.30881064
Ni     -5.87099502     6.64111378    -4.00985757    -0.44926342    -1.31623287     0.80346921
Ni     -5.81951110     8.68386275    -6.02658543    -2.21759259    -0.13189257     0.73014490
Mo     -6.06631648     0.18985891   -10.22764766     0.21421744    -0.31074521    -0.39301197
Mo     -9.74570946     8.63782280    -6.29457228     0.24792146     1.63113852    -1.24096140
O      -1.74315954     1.84772669    -1.94235964    -1.21828301    -0.37318495    -0.28150651
O      -2.07787199     1.83710178    -6.13460724     1.23888945    -0.41016054     1.92583256
O      -5.92699532     6.83314515    -1.90492318     0.11203834    -0.53305950    -1.08970789
O      -5.86774756     6.74592049    -5.88721341     0.72646512     1.03519552    -1.06522172
O      -6.03835782     2.10534269   -10.01030456     1.82721272    -0.69878802    -0.18858906
O      -5.84108474     1.85743440    -5.79859003     0.13362365    -0.36699046    -0.31044313
O      -9.84039212     7.00283803    -9.78118195     0.19247237     0.07189360     0.83506808
O      -9.74045709     6.76976903    -6.01672754     0.16646102    -1.21516255     0.59306557
O      -3.91678211     2.40411398    -3.95148708     0.65391410    -1.29220113     0.12648561
O      -3.84268391     2.51827196    -7.95493985    -0.09741920    -0.05514978     0.32799769
O      -7.66821411     2.43336296    -3.89478999    -1.62906754    -0.18018865    -1.05306298
O      -7.76238746     2.38543456    -7.97370969    -0.73035993    -0.41587002    -0.14194864
O      -3.95827918     6.38219374    -3.84086135     1.21773927    -0.16410882    -0.77905971
O      -3.90687382     6.33479184    -7.87284346    -1.08224249     1.19414647    -0.37854052
O      -7.90410810     6.40262548    -3.89512277     0.40051063    -0.74586586    -0.36115271
O      -7.77908447     6.31393873    -7.87568173    -0.45049710     0.20929031    -0.65139441
O      -3.69973234     4.27727338    -2.02466377    -0.51307521     0.44351620    -0.22197646
O      -3.72722328     4.32574724    -5.81629898     0.01505855     0.41279378    -0.55589680
O      -7.85044575     4.37206398    -9.98825008     0.08176823     0.15578386     0.88019869
O      -7.63248160     4.36305355    -6.01265105    -0.85459191    -0.15172759    -0.46995660
O      -4.04918456     0.15914928    -2.09620579     0.94550378    -0.20980073    -0.14883030
O      -7.80025120     8.57471414    -6.01287739    -0.90517222     0.45148775    -0.41276079
O     -11.54028837     8.56526037    -6.17604707     0.85823869     0.46607661     0.26324175
O      -0.06566565     0.04877758    -6.11004303     1.76696654     0.38896808    -0.08990819
O      -1.88566564     4.00168566    -3.99956417     0.05529965     0.27010363    -0.05409844
O      -9.86282784     4.75993269    -4.06185775     0.22580906    -1.04481689     0.26671441
O      -5.86909971     4.62860195    -4.04896005    -0.25016396     0.15751218     0.51988328
O      -5.78483283     4.33240083    -7.89805284    -1.59992114    -0.13033862    -0.46369811
O      -1.92679827     0.14163042    -4.01638978    -0.00992118     0.00768209     0.09696924
O      -5.85142871     8.56751060    -8.07450797    -0.00453985     0.80987553    -0.24555813
O      -9.70064344     8.39560199    -4.00737086    -0.79317927     0.29900004    -0.15768782
O      -5.69103524     0.56291994    -8.17496304    -0.89795495    -0.52706070     1.92017578
