# total energy = -630.61850499 eV

CRYSTAL
PRIMVEC
        0.00279571     0.02951795    -7.98606283
       -7.83802570     0.01298533    -3.99532603
       -3.92160916     8.71933433     0.00634407
PRIMCOORD
56 1
Li     -4.08250210     2.23911741    -1.83444913     0.35183341     0.12270198    -0.49506202
Li     -3.91088190     2.32343422    -6.08655660     0.23561047    -0.40945107     0.80950531
Li     -7.83429321     2.40525842    -9.97958265    -0.04375251     0.10392071    -0.15793690
Li     -7.95064946     2.16451208    -5.89943445     0.47559963     0.15276168    -0.26018546
Li     -3.99214178     6.75216800    -2.03829993     0.86625006    -0.02299862     0.02506490
Li     -3.84723113     6.38841631    -5.98587504    -0.17497828     0.13759002     0.66280462
Li     -7.89868471     6.41271645    -9.89600863     0.21886101     0.34655173    -0.15217662
Li     -7.81550960     6.46075899    -5.87628684    -0.25696150     0.22674510    -0.45395863
Ti     -2.02798833     2.13216304    -4.04854699     0.29189014     0.14629548    -0.68718883
Ti     -5.78389097     6.62959379    -8.04782642    -1.35629733     0.08928628     0.29161418
Ti     -7.77763826     4.35510250    -7.77127675    -0.61822550     0.22303371    -0.42411786
Ti     -7.87661966     4.40215981    -3.82893623     0.81543567    -0.64444377     1.01687530
Ti     -3.92427894     4.32737746    -7.72168541    -0.00286629     0.70201028     0.19502919
Ti     -4.03232545     4.41634423    -3.78736435    -0.01263137    -0.61228961     0.64862980
Ti     -2.17834105     0.11886692    -1.90675712     0.39009401     0.40577649    -0.78166299
Ni     -5.87632447     2.27357456    -7.92648720    -0.04108170    -0.66065790     0.22214044
Ni     -5.86056817     2.17910338    -4.07781279    -0.26236832    -0.78846907     0.07808120
Ni     -9.75366847     6.29890441    -7.87752761    -0.78452299     0.42301346    -0.71344634
Ni     -9.74197121     6.51823322    -3.92675428    -0.45277656     0.32460662    -0.21874166
Ni     -2.01849610     2.29014889    -8.01770080     0.83653140    -1.11893590     0.39135110
Ni     -5.96455008     6.79851160    -4.16691503     0.79651686    -0.15900929     1.38251826
Ni     -1.88013333     0.03411337    -5.99765801    -0.55693375     1.44767291    -0.45456888
Mo     -9.86747755     8.74924453   -10.23769008    -0.51327659    -0.36849933    -0.52753285
Mo     -9.74917949     8.71868178    -6.30595853     0.22850509     0.29471274     0.42058861
O      -2.03466331     2.08871559    -2.13708312     0.03323524    -1.16821730     1.66745765
O      -1.88692514     2.00718014    -6.03968817    -0.02146989    -1.34225729    -0.11452357
O      -5.80737813     6.92393276    -2.06380745    -0.80250026    -0.10050301     0.48163078
O      -5.85679555     6.95312824    -6.06955685     0.06915175    -0.63495913     0.85213426
O      -5.97540578     1.93941428    -9.88866454     0.55716222    -0.36010117     0.68888134
O      -5.77775509     1.89752050    -5.99786460    -0.51279754     0.50850016    -0.65627651
O      -9.77411306     6.81145290   -10.03940789     0.11095337    -0.19772624    -0.13663015
O      -9.79630265     6.75823108    -5.76637604    -0.15515605     0.73749622    -0.55578434
O      -3.84636119     2.32841503    -4.13525694    -0.89020307     0.46599305     0.48080421
O      -3.96703874     2.41876570    -7.92922558    -0.52801926    -0.34294255    -0.31254470
O      -7.92665048     2.47303765    -4.02089576     0.24375391    -0.90118892     0.11278612
O      -7.76726493     2.38819958    -8.00229094    -0.35782970     0.73734305     0.20189275
O      -3.92163859     6.30307582    -3.91743523    -0.00144214     0.00374612    -0.42654955
O      -3.88158044     6.34606924    -7.90743534     0.07362124     0.13562650    -0.82871791
O      -7.82143992     6.33779507    -3.92273546    -0.07429327     0.76841774    -0.93779372
O      -7.86394697     6.47309494    -7.92526522     1.12674526    -1.48748175    -0.15566986
O      -3.97247500     4.11886708    -2.03943156    -0.55822983     0.69184144    -0.17823608
O      -4.09428676     4.36863695    -5.94528947     0.55092199    -0.06878415    -0.96998512
O      -7.78667483     4.59289169   -10.02724459    -0.22383325    -1.14477727    -0.07619150
O      -8.01109270     4.36366944    -6.04746070     0.51408611     0.65500769     0.72858899
O      -4.02927681     0.11148499    -9.87307009     0.07519081     0.11479385    -0.03306805
O      -3.94606057     0.02705807    -6.04648710    -1.39848685    -0.06686122    -0.44487671
O      -7.70725103     0.21796381    -5.90073925     1.53316759    -1.10899908    -0.79176545
O     -11.64768765     8.70074801   -10.15454851    -0.30566078     0.11587223     0.41983074
O      -1.97537693     4.34037552    -4.01210765     0.00194587     0.22153751    -0.45887091
O      -2.03494193     4.11837725    -7.91181845     0.74370888     1.18357091    -0.27995891
O      -5.94819224     3.93484294    -4.18088534     0.07835490     1.67755769     0.50182010
O      -5.87309839     4.66680947    -7.98975274    -0.02469524     0.65118390    -0.30163262
O      -1.99201196     0.25421378    -3.93623038     0.34703651    -0.32179475    -0.19517442
O      -5.82574436     8.69043508    -8.05109583    -0.01170868    -0.44869249     0.10548164
O      -5.69475583     0.20870898    -4.04422894    -0.33095378     0.31566986     0.54042716
O      -9.85041108     8.16805099    -8.04227036    -0.13343911    -0.00045295     0.23850152
