# total energy = -630.61712044 eV

CRYSTAL
PRIMVEC
        0.00279571     0.02951795    -7.98606283
       -7.83802570     0.01298533    -3.99532603
       -3.92160916     8.71933433     0.00634407
PRIMCOORD
56 1
Li     -3.97288417     2.01007240    -1.96350997    -0.02982275     0.15391856     0.03979462
Li     -3.94929353     2.42621508    -5.98446843    -0.18557518    -0.33212283     0.44408486
Li     -7.78756895     2.30247982   -10.12091120    -0.11873870    -0.57088978     0.49073221
Li     -8.03521217     2.26090012    -5.92845951     1.13960032     0.37859568    -0.33567377
Li     -3.87304347     6.41862539    -1.85946365     0.04865163    -0.09695071    -0.74059807
Li     -4.11069356     6.54790442    -5.82920707     0.59863344    -0.10549359     0.23201367
Li     -7.92250350     6.76782595   -10.08020642     0.33560507    -0.15996547     0.54908381
Li     -7.77048723     6.27800626    -5.80860830    -1.00537276    -0.04704511     0.00297216
Ti     -1.94747904     2.20001981    -4.07536708     0.31737845     0.40502278     0.02339869
Ti     -5.89644620     6.70093218    -7.90506065    -0.60244800    -0.30963798    -0.64574896
Ti     -7.77074115     4.35389942    -7.86790613     0.11952703     0.09189943    -0.03193135
Ti     -7.87899571     4.37771394    -3.76520374     0.17859804     0.33884550     1.34531351
Ti     -3.99160178     4.39380046    -7.67007280    -0.30176939    -0.02284988    -0.37030887
Ti     -4.04185786     4.31913682    -3.69468808     1.18102156     2.01348731     0.33519159
Ti     -1.69053702     0.06986892    -1.97833256     0.39005926    -0.99839208     0.01931590
Ni     -5.78024164     1.91806329    -8.05582356    -1.04348538     0.60029820     0.96533734
Ni     -5.94712623     2.40246407    -4.11448188    -0.04974634    -1.50072684    -0.28088867
Ni     -9.78368099     6.39199502    -8.18847536    -0.45850614    -0.11256822     1.29250629
Ni     -9.92001745     6.52578165    -3.89880077     0.63856406     0.20989940    -0.47787325
Ni     -2.03513808     2.30153375    -7.98492996    -0.06199570    -0.93475635     0.23849631
Ni     -5.80093863     6.74729621    -3.87027609    -0.49598321    -0.34464097    -1.01214960
Ni     -2.06917064     0.03208891    -5.96399570     0.85784191    -0.33979624     0.29169722
Mo     -5.95905175     0.03868501   -10.31618314     0.19297368    -0.70214832    -1.48513934
Mo     -9.65575591     8.70295185    -6.30297190    -0.04085399     0.18235559     0.68302758
O      -2.08736067     1.93965949    -1.87263385     0.24878586     0.38246726    -0.86413165
O      -1.99278894     1.86650426    -5.92260756    -0.26696258     0.42471950    -0.81331168
O      -5.96172752     6.85352406    -2.06004055     0.71812010     0.66616569     0.68433210
O      -6.07039259     6.81614979    -5.89539099     1.47761223     1.41645055    -0.29119035
O      -5.86223682     1.88992338    -9.88418202     0.07708521     0.76767193     0.25171428
O      -5.93513983     1.94284049    -6.22518594     0.53309283    -0.07363472     0.80273112
O      -9.94576843     6.76011644   -10.05277325    -0.12118588     0.28667557    -0.33356573
O      -9.77692109     6.87911707    -5.74660728     0.13467967     0.22970698    -0.06072082
O      -4.00607752     2.44215423    -3.96728880     0.96154333    -0.85696468    -0.25902616
O      -3.97787633     2.44626961    -7.87526811    -0.04104642    -0.37883898    -0.70550489
O      -7.92932035     2.50258928    -4.08455306     0.37293664    -1.21425578    -0.00770497
O      -7.86006533     2.35400950    -7.99688957    -0.26050107     0.13043568     0.08584788
O      -3.85344286     6.36812575    -3.82462784    -0.27456831    -0.44728759    -0.92012918
O      -3.94792718     6.37508314    -7.99141843    -0.29049136     0.67287012     1.07662560
O      -8.01821668     6.26315300    -3.86045948     0.17865462     0.54611047    -0.78352871
O      -7.86859186     6.30222585    -8.18531230    -0.11542050     0.28164103     0.80495404
O      -4.12196387     4.49191357    -1.96217516     1.03585367    -0.46280062     0.63536569
O      -3.89838663     4.48287562    -5.90018887    -0.48781483     0.05186659    -0.68130412
O      -7.69217588     4.15043665    -9.99055896    -0.16456365     0.56180032    -0.82480120
O      -7.65392215     4.36466962    -6.10216322    -0.41131760    -0.07972251     0.55410938
O      -8.05750230     8.65839105   -10.03588863    -0.25110778     0.46693221     0.03525880
O      -3.96172600     0.13314807    -6.07782971    -0.00962797    -0.25970861    -0.03273177
O      -7.66164990     0.10237461    -6.02683884    -1.38287849    -0.18190902    -0.04027460
O      -7.75978847     0.12301675    -9.93293155    -0.56153290    -0.69411740    -0.35686813
O      -9.74506354     4.29491225    -8.08731693    -0.48794825    -0.23765277     0.34821941
O      -2.08956197     4.13514925    -7.95004799     1.36584161     0.98450308    -0.36192728
O      -5.83745357     4.22280186    -4.00198301    -2.63027144     0.39391903    -0.69349659
O      -5.86126504     4.78704076    -8.08459419     0.00448753    -0.04722983     0.52040510
O      -1.90362768     0.32624343    -3.86349411    -0.56120450    -0.41067625    -0.26023142
O      -5.80930887     8.62624503    -8.05104395    -0.31419782    -0.36526547     0.43255130
O      -5.92115967     0.45769002    -4.12347288    -0.09900439     0.52884714     0.43743719
O      -9.77085199     8.25444086    -8.07090818    -0.02230538    -0.38908928     0.04899630
