# total energy = -630.60084912 eV

CRYSTAL
PRIMVEC
        0.00279571     0.02951795    -7.98606283
       -7.83802570     0.01298533    -3.99532603
       -3.92160916     8.71933433     0.00634407
PRIMCOORD
56 1
Li     -3.81761120     2.11268609    -1.95667167    -0.41926457     0.11368550     0.13418796
Li     -4.00607638     2.15443974    -5.98549518     0.08130365     0.31576415    -0.18208492
Li     -7.84908316     2.16740575    -9.92487667     0.11353978    -0.02914322    -0.72312942
Li     -7.84059899     2.46186975    -5.99677049     0.00051938    -0.49369705     0.41830983
Li     -3.93777748     6.24878745    -1.88835466     0.18430826     0.82366501     0.00009719
Li     -4.01872393     6.35054771    -5.84798603     0.62006750     0.02838090    -0.37139540
Li     -7.73382738     6.68098147    -9.93878142    -0.59049245    -0.25123170     0.11067866
Li     -7.83325850     6.38979089    -5.97719922    -0.23680066    -0.07569528     0.01459363
Ti     -2.01117742     2.28465030    -4.08703427    -1.07220831    -0.35140079     0.63400081
Ti     -5.85813601     6.66785687    -7.80318347     0.73532078     0.49971207    -0.86967765
Ti     -7.83790333     4.39842084    -7.89450080     0.12078005     1.01699613     1.73266915
Ti     -7.90696107     4.42620460    -3.75030435    -0.80843294    -1.14922801    -0.12275657
Ti     -3.86060722     4.36099066    -7.74996201     0.52044397    -0.31972911     1.16407482
Ti     -4.17166103     4.39656469    -3.73232503    -0.05993914    -1.03604532    -0.43286933
Ti     -1.72987392     0.03539691    -2.05285670    -0.11988529     1.15946712    -0.47253057
Ni     -5.89457144     2.32675860    -8.10038746     0.63992957    -0.44773774     1.33101630
Ni     -5.93610918     2.16608611    -3.88473860    -0.27805266     0.44830279    -0.95306984
Ni     -9.95866726     6.45756652    -7.97369329     0.74671988    -0.61003356    -0.58598947
Ni     -9.73738498     6.57215161    -3.89538657    -0.35048647     0.10331048    -0.11766212
Ni     -1.92582712     2.00260916    -7.95514971    -0.08958002     1.53836130    -0.60092905
Ni     -5.94849722     6.76150739    -4.00723856     0.57260216    -0.29572029     0.19179855
Ni     -1.88832198     0.07482617    -5.98741625    -0.73684826    -0.65057018     0.24432132
Mo     -9.85771051     8.70050205   -10.37210143    -0.65176370    -1.18371531     1.56174063
Mo     -5.80740070     0.02685855    -6.31651579     0.38577546    -0.58748703    -0.91205473
O      -1.91826036     1.97533441    -2.06219353    -0.44568610    -0.09627484     0.08487790
O      -2.06513559     1.86487035    -6.03171699     0.71441984     0.15617929     0.30518202
O      -5.87306052     6.92058446    -2.05714214    -0.25835925    -1.43353297    -0.24486237
O      -5.89419741     6.87631060    -5.91909022     0.42775582     0.68775205     0.51931503
O      -5.80104640     1.88573223    -9.86309499    -1.18717804     0.79086535    -0.61819353
O      -5.94563368     1.85395065    -6.10871999    -0.07123909     1.43737067    -0.23400385
O      -9.90612420     6.71623883    -9.98032859     0.61356261     1.01885845    -0.58067688
O      -9.77225760     6.92957026    -5.72136011    -0.57500450    -0.77940396    -0.69224303
O      -4.00389441     2.34171022    -4.00603719     0.91007073     0.79192837     0.40336485
O      -3.94824356     2.41792265    -8.02098544    -0.96343905    -0.03119110     0.09910003
O      -7.82908650     2.39691212    -3.86991081     0.16175549    -0.61713687    -0.34137525
O      -7.92457224     2.49658706    -8.12502888     1.15632801    -0.67373909     0.49505435
O      -4.02997923     6.29241614    -3.99644668    -0.24476268     0.00787838     0.47434774
O      -3.81549456     6.44948295    -7.92823985    -0.22995925    -1.00356383     0.25332986
O      -7.78648236     6.31376835    -4.12098684    -0.71529982     0.62200049     1.14951400
O      -7.69354553     6.39240697    -7.94393944    -1.87261506     0.06018453    -0.18436177
O      -3.83353750     4.41302898    -1.98041732    -0.11150542    -0.38275367    -0.34074785
O      -3.69902931     4.26560260    -5.94708025    -0.91870571     0.53993221    -0.83313100
O      -7.88712410     4.49702171    -9.97418172     0.74565858     0.33061319     0.82074950
O      -7.75847280     4.29586121    -6.06134094    -0.15704454     0.78908305    -1.45173163
O      -4.18496670     0.08704153    -9.95085609     0.49466883    -1.01165601    -0.27594227
O      -4.04620698     0.05536359    -6.17050174     0.30924856     0.10459684    -0.16578276
O      -7.82197934     0.12387622    -6.01225879     0.91142154    -0.35638902     0.14188058
O      -7.79204542     0.14160610   -10.06457174     1.26792618    -0.20744993    -0.22055958
O      -1.94908918     4.30066236    -4.03488493    -0.49769023     0.32574607     0.35236864
O      -1.89931209     3.95821547    -7.93360136    -0.41932126    -0.12953655    -0.62194823
O      -6.01741873     4.05492664    -3.97993938     1.53495422    -0.21107449     0.17029967
O      -5.77391363     4.77851112    -7.87162163    -0.07768679    -1.06280805    -0.57683808
O      -1.93128937     0.29821602    -4.04207287    -0.24723027     0.34071065     0.49238447
O      -5.89411132     8.60357855    -7.95951937     0.12548564     0.90532760    -0.63119489
O      -5.85322527     0.25097567    -4.19100270    -0.21503702     0.75300702     0.53537510
O     -10.09518546     8.29490808    -8.05863536     0.59913148    -0.25658937     0.51603874
