# total energy = -630.65735435 eV

CRYSTAL
PRIMVEC
        0.00285542     0.02004370    -7.95977623
       -7.82940539     0.00763210    -3.98158109
       -3.91729101     8.74642787     0.01461334
PRIMCOORD
56 1
Li     -3.80815740     2.05844831    -1.87797005    -0.56164581     0.73377302    -0.32195271
Li     -4.00314468     2.06982864    -5.98330906     0.45114986     0.28271048     0.36034514
Li     -7.74677857     2.28597539    -9.95441040    -0.05675241     0.15337225     0.51761283
Li     -7.69047930     2.34491193    -5.80581426    -0.80679365     0.23066506    -0.31606846
Li     -4.01074555     6.78807193    -1.88476580     0.84812795    -0.50596877    -0.42475188
Li     -3.95011123     6.39507853    -5.93228095     0.15104834     0.16710210     0.38845520
Li     -8.08240200     6.45875167   -10.08556340     0.87759306    -0.01943425     1.09204738
Li     -7.77813154     6.65819802    -5.83336803     0.07667554     0.00374494    -0.50441890
Ti     -1.86178034     2.11919905    -3.94347004    -1.11824212    -0.73906851    -0.45042637
Ti     -5.83965968     6.52601532    -7.97264873    -1.02421545    -0.42774660     1.07747602
Ti     -7.99465193     4.44108548    -7.68996713     0.48486510     0.94391933     0.36641085
Ti     -7.76304799     4.36877929    -3.66718591    -0.26299512     0.01685262    -0.08061523
Ti     -3.81171235     4.33193600    -7.72902711     0.57310952     0.23843574     0.14240145
Ti     -3.98425250     4.32295533    -3.75165242     0.22219750    -0.85125874     1.60992771
Ti     -6.18860118     8.66270336    -1.92704533     1.29342268     1.15115050    -1.12162293
Ni     -5.82740028     2.52375394    -8.00100937    -0.59685196    -0.97933003    -0.40579479
Ni     -5.86271773     2.00537951    -3.97349623     1.24086812     0.30250373     0.01504663
Ni     -9.87177348     6.66934896    -7.82531970     1.21051777    -0.39077141    -0.88681949
Ni     -9.71944677     6.42242301    -4.01172261    -1.51511908     1.33383899    -0.88460991
Ni     -1.92423094     2.11634951    -7.87504570     0.70454272     0.24490235    -0.66786676
Ni     -5.87172892     6.60876739    -3.95249360     0.20903568     0.08503778    -1.39490814
Ni     -1.92358351     0.13950303    -6.09529327    -0.49254825    -1.39099093     1.13587600
Mo     -6.02789267     0.02983086   -10.27770864    -2.04289088     0.12566368    -0.02805084
Mo     -5.87769409     0.05589061    -6.37572063     1.39419045    -1.20238166    -0.67225938
O      -1.88419535     1.87188284    -2.07774246    -0.09797102    -0.72430543     2.18707068
O      -1.80785916     1.94596837    -6.00118493    -0.76951556     0.09977382    -0.63029177
O      -5.94256195     6.77402601    -2.07513129     0.47543494     0.27543740     1.07811608
O      -5.81328493     6.98481371    -6.03046712    -0.59903657     0.04959612     0.05159428
O      -5.79245027     1.94798847   -10.12342254    -0.30220173    -0.10104525     0.80346354
O      -5.92074193     1.90622183    -5.81029804     0.63608641     0.43045732    -0.18095885
O      -9.80845072     6.94011431    -9.70983598    -0.72000160     0.36450084    -0.01153267
O      -9.70895922     6.75117909    -6.01991340    -0.39864773     1.18034074     0.20680092
O      -3.86070725     2.27288395    -3.94097713    -0.76133466     0.62155197    -0.65651271
O      -3.87362186     2.41273712    -7.92354500     0.01519247     0.36318235     0.18878586
O      -7.65942368     2.39209861    -3.86275015    -1.36827545     0.68284655    -0.57354612
O      -7.79898592     2.51768583    -7.85183746     1.05252375    -0.93809379    -0.88296543
O      -3.82437490     6.28108308    -3.94931254    -0.53984471     0.61164462     0.44411488
O      -3.93708084     6.38016185    -7.88203358     0.14546312    -0.72549600    -1.02453420
O      -7.88554207     6.40448531    -4.00507850     0.92397364    -0.72242211     0.60600924
O      -7.80787315     6.38885114    -7.98620194    -0.34756868     0.38293035     0.42447199
O      -3.95583309     4.18516934    -1.96745141    -0.34542271     0.55932337    -0.66133538
O      -3.87773857     4.44337261    -5.96047670    -0.13368649    -0.54072119    -0.46965067
O      -7.93728146     4.45285423    -9.83811449     0.22796201    -0.18509510    -1.83874873
O      -7.88768490     4.40813770    -5.95519054     0.16505424     0.03024219     1.01186269
O      -7.94816832     8.75721881    -9.96003674    -0.39920164     0.08000415    -0.24342629
O      -4.02540013     0.13110739    -6.08288379     0.24462001    -0.63181850    -0.01403044
O     -11.51760174     8.68697749    -6.03209084    -1.40963583    -0.10138178    -0.05082218
O      -0.03143381     0.06026066    -6.12128465     2.47349371     0.27182922     0.11186437
O      -2.00845594     4.04220743    -3.86410738    -0.70825893     0.32935935    -0.80475003
O      -9.72716502     4.61137017    -4.01098699    -0.24733941    -0.78485857     0.11182801
O      -5.88117342     4.70204888    -4.08019045    -0.26976877     0.14547682     0.44385558
O      -5.99411216     4.47475850    -7.95770344     2.02235320     0.34471569     0.01727427
O      -1.93435809     0.16618896    -4.03825946     0.07779938    -0.52612965     0.60702600
O      -5.76721685     8.55631740    -8.02841420    -0.47981163    -0.27026753    -0.72231841
O      -9.85392921     8.33328185    -4.08842471     0.63027620    -0.30549781     1.06333604
O      -5.81734942     0.53260666    -8.18112435    -0.49142570     0.92203329     0.93444865
