# total energy = -630.68815383 eV

CRYSTAL
PRIMVEC
        0.00285542     0.02004370    -7.95977623
       -7.82940539     0.00763210    -3.98158109
       -3.91729101     8.74642787     0.01461334
PRIMCOORD
56 1
Li     -3.98056907     2.26142267    -1.84578032     0.28362060    -0.11491114    -0.54980977
Li     -4.03446712     2.45501682    -6.06764298     0.53074459    -0.34064905     0.61954705
Li     -7.82842423     2.29020759    -9.84234732     0.50154757    -0.05167506    -0.72618003
Li     -7.82998998     1.92316023    -6.11673833     0.15761378     0.23035563     0.88246106
Li     -3.83775250     6.55937432    -2.00024215    -0.90596389    -0.13337624     0.05040435
Li     -4.01695161     6.61448521    -5.72712602     0.83813401    -0.17927291    -0.85648413
Li     -7.71895311     6.29708559    -9.93606499    -0.37608073     0.16535335     0.34357574
Li     -7.95614618     6.43826475    -5.81788652     0.44421206     0.30108364    -0.23591305
Ti     -1.99087906     2.26561744    -4.02231267    -1.18807887    -0.87520620     0.18132920
Ti     -5.86759162     6.77519677    -7.81898169    -0.27919539     0.71634962    -0.19984187
Ti     -7.86634998     4.30394040    -7.64971440     0.82263570     1.01841425    -0.21422423
Ti     -7.91098783     4.32706823    -3.74767131     0.49971903     0.10499237     0.04130228
Ti     -3.93038275     4.39350600    -7.80089967    -0.49113564     0.25141114     0.82709599
Ti     -4.14514326     4.40166852    -3.76586149    -0.01044214     0.71010819    -1.45956519
Ti     -5.99789165     8.65084457    -2.08817832    -1.12923804     1.18474627    -0.85751302
Ni     -5.83728969     2.35986931    -7.98995603    -0.12547242    -1.21004316    -1.29294148
Ni     -5.93172945     2.26092655    -4.13803462     1.09821371     0.20735872     1.00779906
Ni     -9.67660354     6.37027982    -7.85013912    -1.30486961     0.71099860    -0.26294818
Ni     -9.77830612     6.47623512    -3.90265628    -0.34255049    -0.33890304    -0.55077074
Ni     -1.93386549     2.32535953    -7.91659503    -0.07910957    -0.58828240    -0.29119895
Ni     -5.89674421     6.66359794    -3.86674210    -0.12637878    -0.17283051    -1.36885802
Ni     -1.91545184     0.01789995    -5.98303779    -0.62189203    -0.15551687     0.65634237
Mo     -9.78744212     8.72439356   -10.23010986     0.09446976     2.08858451     0.88821004
Mo     -9.77044689     8.73594194    -6.30904895     3.27604637    -1.01479330    -1.70991441
O      -1.88264438     1.81209122    -2.03171822    -0.37663335     0.93019871    -0.03283729
O      -1.95356397     1.86783700    -5.93606806     0.07592601    -0.09872343    -0.51900290
O      -5.89511142     6.78910540    -1.89125705     0.34892499    -0.50615145    -0.66048922
O      -5.80254073     6.89044440    -5.89365408    -0.57771383     0.10625833     0.41359864
O      -5.81841520     2.05678505   -10.06288770    -0.36848330    -0.46966889    -0.08656979
O      -5.85082113     1.96471991    -6.04461328    -0.34933314     0.28627917     0.45194564
O      -9.62015570     6.97725268    -9.80675674    -0.28543079    -2.45857409     0.15891586
O      -9.90203918     6.79693739    -6.00621000     1.51106028    -0.37885595     0.87463066
O      -3.94294569     2.47064970    -4.05149918    -0.14257099    -0.61740227     0.00042238
O      -3.88877536     2.40420452    -7.93238362     0.29612492     0.82458237    -0.24384274
O      -7.80534864     2.38651944    -3.96832402    -0.88513454     0.05741573    -0.22941682
O      -7.82893090     2.37930609    -7.96051167    -0.45483974     0.24528064     0.13014594
O      -3.87401373     6.39575295    -3.98601451     0.32652697    -1.00161776     1.12738862
O      -4.00893599     6.43976980    -8.01873282     1.04703471    -0.96064815     0.77482888
O      -7.84417328     6.36481375    -3.97162426    -0.22060352    -0.40538522     0.91487125
O      -7.74094474     6.32533806    -7.84092939    -0.45481107    -0.54865203    -0.28122905
O      -4.24861406     4.32440954    -2.05566043     0.68948127     0.26380375     1.52006506
O      -3.93993875     4.38932365    -6.03367088    -0.08698256     0.38174070    -0.36052058
O      -7.85143641     4.36015519    -9.92181221    -0.30328244     0.31911274    -0.26076517
O      -7.88549561     4.44727150    -5.91945068    -0.65905858    -0.14070617    -0.41537980
O      -7.83455646     8.73706386    -9.85237838     0.72862810     0.45251106    -0.57449504
O      -7.94599743     8.55714884    -6.01639729    -0.89583753     0.40883300    -0.20328494
O     -11.51359236     8.71368710    -6.02254496    -2.41186348    -0.02541850     0.42623524
O     -11.52408591     8.73629803    -9.93758662    -0.68843350     0.01165859    -0.58055339
O      -2.09262088     4.16152402    -3.92722171     1.27582813     0.26514206    -0.19826343
O      -2.02469475     4.39172468    -7.97962372     0.63600414     0.10925211    -0.58432143
O      -6.03028112     4.31700135    -4.30196785     1.07250107    -0.49098658     1.10759987
O      -5.92818747     4.21977279    -7.99415974     0.11229947     0.59720491     0.39363312
O      -1.92411085     0.17505195    -4.06523741    -0.09559546     0.14340284     1.08789664
O      -5.85384688     8.63101730    -7.90606059     0.24652062    -0.53974283    -0.03371889
O      -5.67779394     0.29476614    -4.06014115    -0.76668154     0.41783489    -0.44942968
O      -5.82417466     0.51903533    -8.15974010     0.12414087    -0.14678727     1.45606486
