# total energy = -630.48996769 eV

CRYSTAL
PRIMVEC
        0.00285542     0.02004370    -7.95977623
       -7.82940539     0.00763210    -3.98158109
       -3.91729101     8.74642787     0.01461334
PRIMCOORD
56 1
Li     -3.90360073     2.24961887    -2.01480439    -0.00242451     0.30367705     0.13070909
Li     -3.90324585     2.15486962    -5.98457623    -0.20830827    -0.14355342    -0.04120781
Li     -7.75536586     2.59714263   -10.09564427    -0.04084117    -0.46074177     0.81840358
Li     -7.83627078     2.45557106    -5.84789106     0.31341568    -0.66534465    -1.10494045
Li     -3.92036044     6.37234802    -1.89849048     0.67631328     0.16859322     0.23770059
Li     -3.90720787     6.59880169    -5.75781205     0.02581290    -0.18045788    -0.22252122
Li     -7.88256893     6.42672574    -9.93761101     0.00759003     0.10012591     0.19584099
Li     -7.66760983     6.54084287    -5.85899276    -1.13334440    -0.11355943     0.07169787
Ti     -1.90081340     2.13130221    -4.08045900    -0.13119688     1.52688737     0.05985408
Ti     -5.80947958     6.69157169    -7.85974391    -0.03425281    -0.59944024    -0.08078457
Ti     -7.89112849     4.39612300    -7.69944841    -0.23041984     0.17105537    -0.43329996
Ti     -7.92753291     4.33670036    -3.89569117    -0.49429873     1.89087176     0.81505605
Ti     -3.82991597     4.41957704    -7.66531970     0.20644654     0.31099430    -0.80581365
Ti     -4.16653785     4.41000955    -3.76187687     1.04072294    -0.83349531    -0.77206088
Ti     -6.09087146     8.59433687    -2.18489701     0.40529304     1.53115985     0.09954723
Ni     -5.82799302     2.48288704    -8.05847102    -0.46648020    -1.01590232     0.66465522
Ni     -5.92508306     2.14363242    -4.00498642     0.78017782     0.02758109    -0.63173282
Ni     -9.87389447     6.60319074    -7.88807376     1.17616251    -0.26999074     1.05558865
Ni     -9.69828240     6.71635095    -3.93283553    -0.62723672     0.03329860    -0.58054870
Ni     -1.89917042     2.06462952    -8.05180101    -0.41031591    -0.29213832     0.86885464
Ni     -5.90048864     6.53623910    -3.90674915     0.39865450     0.56533165    -0.02915673
Ni     -5.84089862     8.63177431    -5.98518234    -0.04550940     0.43340074     0.25598421
Mo     -5.94275750     0.02374495   -10.08474588    -1.86144357     0.92635130     1.06351167
Mo     -9.74415058     8.66818567    -6.25255252    -1.42534518     0.14632065    -2.08979293
O      -1.94026155     1.83447697    -1.98321455     0.04238184    -0.42890686    -0.11660957
O      -1.80613247     1.76158466    -6.00898011    -1.00334826     0.09448179    -1.25867122
O      -5.77928950     6.78038509    -1.95951609    -0.86487576    -1.10665248    -0.62476351
O      -5.83927706     6.71355836    -5.89276326     0.11748295     0.93502964     0.39725780
O      -5.84633815     2.09491589    -9.97225183    -0.20633943    -0.32051164    -1.44644812
O      -5.90766383     1.88357681    -5.96996132     0.56416477     0.73184203     0.66147043
O      -9.79332039     6.92130191    -9.82172915    -0.08638771    -0.69494234     0.75332890
O      -9.69350627     6.68938905    -5.93981498    -0.72310661     0.92688135    -0.39143435
O      -3.89835930     2.43535417    -4.03794751     0.12786997    -0.53812995    -0.16142343
O      -3.92942183     2.51394758    -7.98135628     1.12608176     0.32625294     0.57671204
O      -7.86767396     2.41398519    -4.07942334    -0.51992241    -0.59053381     1.19217603
O      -7.76935139     2.45047242    -8.05617321     0.09334203     0.44961646     0.35903545
O      -3.90327542     6.35558681    -3.76440487    -0.28970004    -0.19259962    -1.35404676
O      -3.89504008     6.60753280    -7.82400278    -0.44433829    -1.10846668    -0.69246808
O      -7.82278983     6.53155376    -3.91717066     0.83953374    -0.93583846    -0.27975976
O      -7.85238784     6.30493743    -7.90478487     0.02466526     0.44713086    -0.25757045
O      -3.95857375     4.28318584    -2.04716341     0.15621581     0.57090893     1.15698674
O      -3.90264590     4.58969073    -5.94463526     0.37176326    -0.38473908     0.62536893
O      -7.89868829     4.61199515   -10.08628233     0.37293045    -1.44799764     0.08356900
O      -7.86443641     4.41377452    -5.92888284    -0.15997403     0.17212973    -0.32485207
O      -7.95007587     8.67210433    -9.99018472     0.97491487     0.28319712    -0.08594989
O      -7.94846226     8.54383467    -5.96074409     0.88098395     0.89163286    -0.24303182
O     -11.55456252     8.62170382    -6.07634990     0.09429229    -0.20953721     0.24630082
O     -11.69314158     8.70834022    -9.92026907     1.16903480    -0.12866080    -0.37971876
O      -1.92227076     4.04026356    -4.12004783    -0.29722159     0.54842311     0.41646454
O      -9.78403854     4.92372658    -4.06540299    -0.76810054    -1.25468706     0.17200500
O      -5.97880797     4.01256663    -4.08249056     0.17390987     0.57922662     0.07115657
O      -5.86879710     4.38462059    -7.85796898     0.38873756     0.48722124    -0.64406819
O      -1.93711320     0.24745963    -4.06975022    -0.34012689    -1.34536828     1.18789521
O      -6.05370465     8.45333147    -8.04100987     0.47145805     0.75461414     0.20824966
O      -5.82966772     0.23897707    -3.97064793    -0.34582632    -0.18792793    -0.10843589
O      -5.80146336     0.70131144    -8.10609760     0.17262300    -1.97194706     0.67973598
