# total energy = -630.94885014 eV

CRYSTAL
PRIMVEC
        0.00285542     0.02004370    -7.95977623
       -7.82940539     0.00763210    -3.98158109
       -3.91729101     8.74642787     0.01461334
PRIMCOORD
56 1
Li     -3.89422086     2.13157343    -1.75849203    -0.02465613     0.00132082    -0.77300443
Li     -4.04823335     2.23311600    -5.97575445     1.14514039     0.19178007    -0.06514608
Li     -7.72161399     2.16109415    -9.88164578    -0.43550209     0.21333747    -0.12233024
Li     -7.71173488     2.16405779    -6.01791911    -0.41252898    -0.11273277     0.86706495
Li     -3.93042155     6.41171765    -1.87424044    -0.20620602     0.13341515    -0.38795351
Li     -4.03165036     6.50207992    -5.88860730     0.56165475     0.09365910     0.53298896
Li     -7.86312708     6.23096510    -9.69577288    -0.20183665     0.33742030    -1.32539786
Li     -7.82050607     6.55781112    -5.92732659    -0.12302508    -0.21027395     0.40664743
Ti     -2.00337105     2.25994516    -4.04156641    -0.88614517     1.13503774    -0.60854940
Ti     -5.92867768     6.90592336    -7.91003282     0.01192249     1.14996025     0.22657768
Ti     -7.83820132     4.34108701    -7.68483134     0.00660932     0.48317733     1.05662676
Ti     -7.85626618     4.31015047    -3.72937220     0.02664467    -0.28934732     0.18180648
Ti     -3.95853144     4.43589192    -7.69842935    -0.47650325    -1.46989560    -0.17608620
Ti     -4.09079907     4.41630901    -3.70012257     0.92995666    -0.10458564     0.03299134
Ti     -5.73663267     8.68645528    -2.33602574    -0.30272431     0.73528997     0.11953888
Ni     -5.86466868     2.34694866    -8.00523234    -0.34470030    -0.62112421    -0.02596420
Ni     -5.91309810     2.24224421    -3.95197801     0.20487767    -0.72814019    -1.20688527
Ni     -9.76783127     6.45396138    -7.83069029    -0.89531111     0.11391724    -0.54901180
Ni     -9.90815860     6.19763862    -3.98169062     0.77608854     0.81660903     0.48001889
Ni     -1.96653955     2.26885544    -8.06950992    -0.02154086    -0.63977796     1.40771638
Ni     -5.98290117     6.59333719    -3.92498786     0.04457210    -0.36662676    -0.63544748
Ni     -1.77730255     0.04581618    -5.95545636    -0.67613514     0.16398842    -1.87214665
Mo     -9.74209896     8.76481637   -10.24980455     0.20597493    -1.80697233     0.40335931
Mo     -9.70565509     8.73486688    -6.23424982    -0.04816799    -0.15215970    -0.85033772
O      -1.93315163     1.91331957    -1.99923838    -0.19575923    -0.49576655    -1.03843465
O      -1.87477995     1.85086604    -5.96201950     0.08855429     0.95102493    -0.25582202
O      -5.90642202     6.78826612    -2.00034594    -0.34331838     0.05186996     0.46707437
O      -5.94350397     6.99447910    -5.89307791     0.51274560    -1.18679213    -0.10069654
O      -5.80300206     2.03716449    -9.99779020    -0.60800838     0.02561526     0.27531098
O      -5.79621582     1.98408106    -5.98953438    -1.71318867     0.09169812     0.64045976
O      -9.73765233     6.79342895    -9.86576537     0.27187980     1.39524990    -0.23062723
O      -9.90266535     6.87966245    -5.91509127     0.40312368    -0.70018971     0.22072077
O      -3.91287749     2.34807220    -4.05628758    -0.12122644     0.85818925     0.63836233
O      -3.98063712     2.44065803    -7.90118772     0.61069918     0.50227809    -0.04841246
O      -7.91002107     2.33055769    -3.90242570     0.76973881     0.28704234    -0.74503919
O      -7.83926108     2.38247203    -7.85934642    -0.07313831     0.69681344    -0.70594296
O      -3.84933717     6.31661104    -3.91115370    -0.48146714     0.17984857    -0.03000810
O      -4.03870599     6.40214967    -7.83880329     0.04351694     0.08869017    -0.63295381
O      -8.01112199     6.21694584    -4.02987934     0.46733222     0.97660597     0.73481046
O      -7.81168406     6.43388961    -7.90682592     0.06509725    -0.46103866     0.51564141
O      -3.93106471     4.47581342    -1.94031116     0.21809168    -0.28550462    -0.01597043
O      -3.89752392     4.49421109    -5.95452378    -0.15423240    -0.21238505     0.17454317
O      -7.91107855     4.36071040    -9.92172312     0.29508826     0.18467508     0.59403833
O      -7.73584418     4.54748551    -5.90559328    -0.48506868    -0.74035524    -1.85625356
O      -3.98181050     0.12597649    -2.05443421    -0.76166633    -0.76126546    -0.24150928
O      -7.97948317     8.70803512    -6.07102747     0.06016140    -0.10506505     0.12165044
O      -3.94391601     8.73550220    -2.21477281     0.23434750     0.01321029     0.36394335
O     -11.49861401     8.68907464    -9.75453486     0.06078755     0.38376316    -0.68738774
O      -2.03197585     4.25285094    -4.04180308     0.90393443    -0.95248249     0.46487429
O      -1.95551415     4.17076346    -0.04657749    -1.14250599     0.16188320    -0.35658647
O      -5.93312107     4.20185111    -3.96808055     0.11091666    -0.27759831    -0.09598707
O      -5.94547893     4.29397721    -8.01790730     0.78940499    -0.07990305     0.11359457
O      -2.04510227     0.25536162    -4.23664111     0.02399714    -0.01973168     3.41571317
O      -5.84310809     8.76176134    -7.94821197     0.09548766    -1.38804087     0.24901429
O      -6.07496427     0.26733973    -4.13328773     0.59133198     0.49859243     0.60298296
O      -5.91402515     0.49052971    -8.02465165     0.53866841     0.29631441     0.30044902
