# total energy = -630.54186120 eV

CRYSTAL
PRIMVEC
        0.00279571     0.02951795    -7.98606283
       -7.83802570     0.01298533    -3.99532603
       -3.92160916     8.71933433     0.00634407
PRIMCOORD
56 1
Li     -3.99598404     2.16613888    -1.94558560     0.55744342     0.24218297    -0.21134476
Li     -3.85491475     2.21433608    -5.97766018    -0.30504257    -0.22043646     0.08424877
Li     -7.67309985     2.42519888    -9.93221205    -0.62214997    -0.30483584    -0.24226616
Li     -7.87625350     2.20371204    -5.95702495     0.49832186    -0.04273914     0.19368713
Li     -3.82148890     6.20472960    -1.97413205    -0.61916168     0.41544461     0.62185341
Li     -3.92389103     6.53373548    -5.82382495    -0.06893609    -0.17365083     0.17117016
Li     -7.89862732     6.44411609    -9.85972468    -0.05413787    -0.26882773    -0.64794104
Li     -7.95220186     6.51521668    -5.85088547     0.38300396     0.25780165    -0.09907197
Ti     -1.90962664     2.28695919    -3.97979433     0.13639227     0.56833705    -1.23857215
Ti     -5.90371630     6.94805205    -7.91417718     0.46014255     0.03117308     0.19915011
Ti     -7.74675647     4.37750861    -7.72085772     0.39442669     0.07410447    -2.65270123
Ti     -7.87121492     4.35959789    -3.77701787    -0.13330279     1.68168955    -1.02807075
Ti     -3.87588114     4.35400743    -7.62940634    -0.19498276     0.49822472     0.73445531
Ti     -3.98763779     4.34874083    -3.70137522     0.01741514     1.19223220    -1.63727249
Ti     -6.03491124     8.64222308    -2.22691046     0.30932858     1.07198792     0.20488367
Ni     -5.75471996     2.31659259    -8.14688978    -0.82556645     0.56237014     0.67518225
Ni     -5.86967764     2.28848933    -4.03411539    -0.47392323     0.13590298    -0.52660246
Ni     -9.84407553     6.51088380    -7.85333364    -0.19224262    -0.18321177    -0.08181082
Ni     -9.88782598     6.49253817    -4.08321403     0.87017425    -0.66001585     1.28871203
Ni     -1.92041349     2.35058112    -8.04416519     0.04568889    -0.47853736     0.64967756
Ni     -5.92274586     6.33577307    -3.92730721     0.03424167     1.62398819    -0.18171679
Ni     -5.99523679     8.66268853    -5.98881467     0.69731771     2.27410414     1.13672619
Mo     -9.82716764     8.65055115   -10.26723766    -1.55102502    -0.20060345    -0.49809296
Mo     -5.93844915     0.04091604    -6.32833287     0.52039021    -1.17892535     0.47855000
O      -1.94376970     1.90166786    -2.09352115    -0.14892499    -0.15155083     0.23454022
O      -1.92376995     1.86197932    -5.99796609    -0.47632931    -0.65543956     0.65064306
O      -5.84434121     6.83473446    -1.96356877    -0.56246066    -1.55726635     0.97389983
O      -5.90320020     6.85613063    -5.88571528    -0.18962262    -0.66204689    -1.30188815
O      -5.83364663     2.01128396   -10.14612468    -0.00736425     0.30488596     0.95837218
O      -5.86167152     1.98773058    -6.06409949     0.00736933     0.10656386     0.51123188
O      -9.79812577     6.72963287   -10.02013963    -0.23342492     0.89759658     0.50086431
O      -9.87246076     6.72472268    -5.96007328     0.47249101     0.93892199    -0.47335280
O      -3.96554342     2.44840556    -3.96646002     1.17764863    -0.95921712    -0.58574010
O      -3.78520993     2.47831118    -8.01988230    -0.41877601    -0.52920224     0.33392017
O      -7.87435296     2.49891129    -3.92343777     0.38068505    -1.96640242    -1.01440192
O      -7.81526520     2.36297382    -7.93175155    -0.27250038     0.44554651    -0.83407306
O      -3.98575356     6.41596591    -3.80280305     0.93446141    -1.29647256    -0.94099789
O      -4.00225125     6.28845413    -7.95779899    -0.57344932     0.80370523     0.00568456
O      -7.93244331     6.35355185    -3.97025505     0.14523399    -0.27285831    -0.20425451
O      -7.76724744     6.36230973    -7.96331295     0.19204845    -0.07213822     0.42043013
O      -3.76040250     4.26324093    -2.00758656    -0.06607862     0.34768518     1.42589641
O      -3.93390011     4.43156589    -5.83684370     0.30469186    -0.10223209    -1.37581088
O      -7.92685572     4.39217590   -10.06453937     0.17774886     0.05208775     3.06542955
O      -7.80560883     4.24715374    -6.05006388    -0.08431340     0.45122432     2.71736929
O      -7.95670387     8.66970044    -2.12622112     1.12132765    -0.05907446     0.47630494
O      -8.01040816     8.63971253    -5.90431810    -0.82779053    -0.02844572    -0.73812126
O     -11.68105334     8.66210862    -6.08887683     0.93178194     0.62025639     0.20000746
O     -11.59273769     8.72689758    -9.99028240     0.05086070    -0.41913545    -0.19401210
O      -9.71865891     4.27124623    -8.05590576    -0.35590507    -1.33584502     0.24521208
O      -9.79609941     4.46679928    -4.09393524    -0.72895417    -0.49705043     0.09514415
O      -5.91467123     4.40370198    -3.84102161     0.41757553    -0.48489097    -0.71846064
O      -5.78298814     4.14295483    -8.00894527    -0.58333690     0.86499474    -0.30043132
O      -1.88207431     0.07092366    -3.98770053    -0.44666490     0.87161926    -1.51212505
O      -2.03293865     0.05515287    -8.02263093     0.18000171    -1.48906243     0.18159708
O      -5.86206813     0.38485634    -4.07475859    -0.47302958    -0.33227468     0.31401183
O      -5.78220451     0.52688733    -8.13069207     0.07254696    -0.72930495    -0.51597613
