# total energy = -630.50046140 eV

CRYSTAL
PRIMVEC
        0.00279571     0.02951795    -7.98606283
       -7.83802570     0.01298533    -3.99532603
       -3.92160916     8.71933433     0.00634407
PRIMCOORD
56 1
Li     -3.90360888     2.08972454    -1.98640224    -0.01031949     0.22624797     0.36336166
Li     -4.09191033     2.01841792    -6.10129137     0.87282313     0.53536896     0.64187069
Li     -8.00099976     1.97818512    -9.93808291     0.57264480     0.17203332    -0.04142479
Li     -7.81803604     2.34669398    -5.86776157    -0.09614602    -0.16923312    -0.22712161
Li     -3.82875118     6.46168711    -2.02422489    -0.26065444    -0.21543708     0.36821884
Li     -4.05521669     6.78628365    -5.94934463     1.15568793    -0.62448963     0.44117263
Li     -7.86904748     6.75755147    -9.87599527    -0.05909795    -0.40386390    -0.26476446
Li     -7.81935469     6.30767106    -5.91048950    -0.19935185    -0.04292311    -0.10901528
Ti     -1.98392289     2.39320825    -3.92518450    -0.68149923    -0.19749476    -0.97959925
Ti     -5.87300713     6.81861291    -7.92020700    -0.69087793    -0.75299104     0.62161141
Ti     -7.61565000     4.30880200    -7.84054408     0.84507223     0.88030371    -0.33853732
Ti     -7.89507736     4.27944405    -3.70600399     0.12375880     0.80145457     1.76718663
Ti     -3.80270277     4.50022040    -7.73148249    -0.90411713    -0.66979152     0.31804908
Ti     -4.10061113     4.43314664    -3.80127874    -0.29129488    -0.61292784    -0.82337612
Ti     -5.74789926     8.66000223    -2.22401462    -0.39763312     1.25774730    -0.28872024
Ni     -5.87918705     2.14045867    -7.98543836     0.43259574    -0.09327466     1.04412986
Ni     -5.98041348     2.29291362    -4.03570706     1.13343006     0.66218193     0.12326278
Ni     -9.86871478     6.18859990    -8.06313586     0.60410337     0.97395800    -0.45311505
Ni     -9.69980652     6.72638406    -3.94021980    -0.45779373    -0.31068901    -0.46731175
Ni     -1.99214099     2.11347064    -8.02698400    -0.64253186     0.71743661     1.02583299
Ni     -5.98517575     6.55988728    -3.96744766     0.60111823     0.25616841    -0.33560278
Ni     -2.05642477     0.07803173    -5.94870562     0.21717144    -0.19167836     0.05356691
Mo     -5.89306004     0.12504496   -10.25420368     1.23902120    -0.19965633    -0.63282185
Mo     -9.79895441     8.64698600    -6.32584502     1.60090915     0.06526339    -1.84412639
O      -1.90132561     1.93676101    -2.01434735    -0.50873180    -0.49131678    -0.33634408
O      -2.02725140     1.87596145    -5.86958975    -0.32139883     0.37589892    -0.69215572
O      -5.87617686     6.82062502    -1.81288300    -0.01575582    -0.03754253    -2.33407275
O      -5.84234997     6.91796773    -5.95671041    -1.62724207     0.34158221     0.56068117
O      -5.77615781     2.00889873    -9.80035103    -1.11043880    -0.22781197    -0.15510166
O      -5.94921791     1.84451354    -6.05046124    -0.19279091     0.72139481    -0.63294305
O      -9.74909307     6.91565928   -10.13309504    -0.21355750    -1.35265910     0.33222653
O      -9.76081303     6.80254118    -5.80330798    -0.24459210     0.45630663     0.46936733
O      -4.01021269     2.39870797    -3.93180833     1.00804186     0.67588836    -0.36777659
O      -4.02511422     2.50678103    -7.92506489     0.46806003    -0.48237995    -0.61733127
O      -7.87865704     2.31144507    -3.87157255    -0.10036579     0.30906119    -0.47946767
O      -7.80365011     2.33371865    -8.06680372    -0.48249261     0.53566910     0.49198821
O      -4.03338525     6.36889892    -3.95303295     0.12614961    -0.43756577    -0.34603474
O      -3.94419770     6.47861080    -7.95162005     0.75832456     0.42386092     0.02776120
O      -7.84922587     6.31419672    -3.87849402     0.03620639    -0.06699463    -0.67642258
O      -7.88355819     6.29378165    -8.04735677     0.39276627    -0.18168772     1.14307898
O      -3.79659921     4.50665825    -2.09496563    -0.16000211    -0.21395716     1.14847508
O      -3.83504073     4.45066610    -5.99600541     0.08910659     0.30673148     0.80500226
O      -7.86646722     4.48240797    -9.90057694     0.07495453    -0.64317166    -1.34756012
O      -7.94724958     4.31363844    -6.09551890     0.13735783     0.19441574     0.50621167
O      -4.03704915     0.04945577    -2.14233123     1.24652488    -0.37426957     0.69823410
O      -4.03790495     0.05754548    -6.13422247    -1.40403445    -0.16898002    -0.00287518
O      -7.78116642     0.08164128    -6.12776750    -0.03078015    -0.87150086     0.28716628
O     -11.54502018     8.63667953    -9.87697727    -1.55464362     1.34359524    -0.36009321
O      -1.96192923     4.28177993    -4.04059436    -0.40863847    -0.56862039    -0.18709119
O      -1.93899083     4.19059860    -7.91853528     0.47447221    -0.89355365    -0.84377525
O      -5.97762120     4.21251681    -4.18518166    -0.18178404    -0.20761319     0.58639012
O      -5.75582561     4.64133170    -7.93009270    -0.90079911     0.57733337    -0.22001680
O      -1.94235216     0.24140866    -4.06266585    -0.22516041    -0.06866938     0.87593179
O      -6.00255901     8.73255255    -7.99854581     0.59721421    -0.18917096     0.10935379
O      -5.86188825     0.49106289    -4.05476783    -0.61971445    -1.16745491    -0.59925741
O      -9.85801677     8.03630626    -8.10658395     0.33853739     0.66171514     2.01264367
