# total energy = -630.19672125 eV

CRYSTAL
PRIMVEC
        0.00285542     0.02004370    -7.95977623
       -7.82940539     0.00763210    -3.98158109
       -3.91729101     8.74642787     0.01461334
PRIMCOORD
56 1
Li     -3.94698985     2.18701057    -1.98499817    -0.47871269    -0.01192006     0.40668961
Li     -4.02379654     2.25714981    -5.95022237     0.04208934    -0.12725970    -0.11565364
Li     -7.80738781     2.45291732    -9.96237984    -0.37831323    -0.45449638     0.41550629
Li     -7.65409088     2.46975651    -5.82343708    -0.66480156     0.14088016    -0.51688617
Li     -3.83380710     6.30776352    -1.98518875    -0.75856380     0.06448149     0.03134506
Li     -3.93545153     6.59936214    -6.03693489    -0.02712025    -0.23161485     0.37523941
Li     -7.88373571     6.82973858    -9.86594108     0.11540610    -0.47036249    -0.14122354
Li     -7.86208809     6.54456272    -5.80780522     0.53779918    -0.00006064    -0.34782082
Ti     -2.05358158     2.23288809    -3.96674452     0.29694914    -0.55238043    -1.53365962
Ti     -5.78647838     6.61460260    -8.06963606     0.39468197     0.59490095     0.64070620
Ti     -7.87038227     4.55293052    -7.76029144     0.08390170    -1.15131067     0.40646519
Ti     -7.78869895     4.49416101    -3.66063702    -1.44570795     1.03165666     0.13758344
Ti     -3.89417679     4.23589557    -7.75365372     1.16220220     1.30771858     0.69893941
Ti     -4.02001496     4.36512763    -3.78420009    -0.11876163     0.20495302     0.64693660
Ti     -1.77491557     0.13217597    -2.01209977     0.13344068    -2.03504301     0.09627755
Ni     -5.94401804     2.36074786    -8.01925050    -0.31083600    -0.21899261     0.33298390
Ni     -5.97157917     2.18925910    -3.98235882     0.47142931    -0.36437860     0.21579837
Ni     -9.87859248     6.53679655    -7.90596419     0.30575053     0.27994968     0.21998732
Ni     -9.70645872     6.46462661    -4.04734339    -1.73282323     0.92943906     0.53745001
Ni     -1.87393730     2.05267406    -7.99658006    -0.90842810     0.17375894     1.45588459
Ni     -5.89976643     6.55880911    -3.98319072     0.24714255     1.03235241     0.03200693
Ni     -5.75267096     8.75019725    -5.90532820    -0.62206367     0.62431116    -0.37800271
Mo     -9.78794325     8.74588270   -10.19101032    -0.28543137     1.02825839    -0.03546884
Mo     -9.75388214     8.54556780    -6.30784257     0.17734440     1.64536862    -0.08104870
O      -2.03966209     1.98222803    -1.92589966     0.36968676     0.81019525    -0.48336200
O      -1.98830137     1.92695528    -5.97259814     0.34885727    -0.85900127    -0.11175443
O      -5.88649957     6.87417457    -1.96986456     0.15241931    -0.15529183    -0.85946787
O      -5.85642022     6.89802344    -6.02375898     0.20689371     0.48504995     0.69400170
O      -5.90265817     2.05184679   -10.00789622    -0.03721234    -0.55732178    -0.80540121
O      -5.93642826     1.86451046    -5.86768830     0.49188293    -0.32441431    -0.15249343
O      -9.89533719     6.89266739    -9.73141868     0.68520701     0.30522278    -0.21147150
O      -9.85861250     6.59281445    -6.01257543     0.58304127     1.57138296    -0.38823299
O      -4.05304138     2.18912537    -4.03666823     0.95319718     1.80821877     0.94125833
O      -4.03335828     2.38641155    -7.91386024     0.50757019    -0.94685646    -0.56389006
O      -7.90175720     2.59008286    -3.92485532     0.69933905    -0.52886882    -0.17669101
O      -7.90184509     2.55278038    -7.99653725     0.36798122     0.07378976     0.33241204
O      -3.91645132     6.40843289    -3.98072405    -0.19111904    -1.16271985     0.23769491
O      -3.90343047     6.33907352    -8.05121649    -0.10254916     0.00529880     0.73968788
O      -7.83456765     6.55553737    -3.84619034     0.44152377    -1.36756790    -0.82667079
O      -7.79499299     6.45551493    -7.98235878    -0.57205453     0.02117963     0.59265405
O      -4.00078346     4.39506865    -1.97750667     0.07491746    -0.55810840    -1.89239060
O      -3.92457084     4.31306311    -5.97427935    -0.24092308     0.21387950     0.46212677
O      -8.05558018     4.71542286    -9.87829960     0.32625031    -1.01985888    -0.37862409
O      -7.97396232     4.58615623    -5.98641073     0.35895033    -0.27949558    -0.20130670
O      -7.92825490     8.75746878    -9.83226249    -1.31410871     0.63543161    -0.25755798
O      -7.99860330     8.58823315    -5.90419134    -1.03866597     0.32978199    -1.21918120
O      -7.74423227     0.05845677    -5.86297511     0.95510456    -0.48816199    -0.81816120
O      -7.75317613     0.05969563   -10.03995925     0.75158312     0.10781602    -0.16361079
O      -2.08432435     4.15285121    -3.94385076     0.31620106    -0.39556318    -0.19720397
O      -9.87179855     4.67392757    -4.01436787     1.52655058    -0.83603462    -0.06527278
O      -5.92795442     4.66004820    -3.99127181    -0.14866750    -0.27231444    -0.20791110
O      -5.80673826     4.44078367    -8.02397391    -2.19439155     0.01445412     0.21096413
O      -2.00472163     0.17751791    -3.92226904     0.40519441     0.43162794    -0.24431591
O      -5.66731793     8.53777552    -8.06642247    -0.96286413    -0.18816489     1.09346478
O      -9.68109187     8.38266298    -4.01389307    -0.51910782     0.02921146    -0.12754682
O      -6.04966475     0.49746953    -8.07389434     0.50534930    -0.02839952     1.50402791
