# total energy = -630.35138467 eV

CRYSTAL
PRIMVEC
        0.00279571     0.02951795    -7.98606283
       -7.83802570     0.01298533    -3.99532603
       -3.92160916     8.71933433     0.00634407
PRIMCOORD
56 1
Li     -4.03141922     2.39082054    -1.97479997     0.71904781    -0.25841204    -0.03798418
Li     -4.04139755     2.00718746    -5.96731361     0.41208838     0.36028466     0.09834131
Li     -7.73102355     2.10890424   -10.06021867    -0.32774567     0.66092163     0.29950579
Li     -7.91945102     2.25801534    -5.89488448    -0.09834295    -0.02646688     0.09949209
Li     -3.94130250     6.26151906    -1.99279529     0.43171395     0.32200849     0.17756846
Li     -3.98738490     6.34847580    -5.94430497     0.31031418    -0.07494622     0.08264854
Li     -7.87843981     6.69892056    -9.95800216     0.07638530    -0.04980265     0.40943528
Li     -7.93552680     6.28838200    -5.85781562     0.09140859     0.76769648     0.24270733
Ti     -1.92240385     2.30044680    -4.15535737    -0.43706024     0.65806656     1.49834520
Ti     -5.83846156     6.77961578    -7.97574214     0.26654211    -0.66942444     0.10622416
Ti     -7.67652579     4.46161197    -7.70496712    -0.05021343    -0.33079326     0.12394574
Ti     -7.88926946     4.40378615    -3.67001528    -1.00587267    -0.33701087     0.37438700
Ti     -3.92912116     4.20440241    -7.78752463     0.26171620     1.23787554     0.50761162
Ti     -4.02886801     4.35152201    -3.90601705     0.44093226    -0.20661842     0.92628678
Ti     -1.95302681     0.01714854    -2.21072700     0.29678260     1.38962137    -0.08571226
Ni     -6.01149639     2.07422736    -7.88710813     0.86144395     0.49783608    -0.45664106
Ni     -5.93021170     2.43116087    -4.06711246     0.04839514    -1.09817110     0.27677843
Ni     -9.80493697     6.30194312    -8.07670535     0.62119837     0.41382549     0.18717936
Ni     -9.81283483     6.75775256    -3.87578477    -0.48097721    -0.58158782    -0.93174249
Ni     -1.96753494     2.19751403    -7.94178152    -0.12486659    -0.14507790    -0.65435961
Ni     -5.89574687     6.47329902    -3.96147147    -0.09528996     0.87301450     0.34932227
Ni     -5.89295849     8.66651776    -5.92403336    -0.20783123     0.48341810    -0.07811663
Mo     -5.89010728     0.08190818   -10.22772482     0.33531402    -0.39505643    -0.80957653
Mo     -5.85275697     0.03207851    -6.35965537    -0.35337540    -0.53707508     0.63172185
O      -1.98518739     2.00866441    -2.03740479    -0.22921019    -1.24401521     0.28128461
O      -2.04153153     1.88986979    -5.98068920     0.42254197    -0.93211658    -0.86181250
O      -5.87011131     6.79651822    -2.01509949    -0.05963928     0.11512693     0.17355810
O      -5.93597245     6.72255740    -5.81694404     0.17387051     1.65236200    -0.97567917
O      -5.82638118     2.00441246    -9.80680010    -0.59584203    -0.39570961     0.39433119
O      -5.98718495     1.95485179    -5.99255811     0.20197714     0.22892826    -0.53908600
O      -9.83668075     6.75698570   -10.03655515    -0.30260760     0.97360412    -0.20882178
O      -9.77989911     6.92713555    -5.80989890    -0.51773633    -0.36096883     0.96579915
O      -3.92721883     2.25685388    -4.00478226     0.25822501     2.48511171    -0.22951137
O      -4.19900988     2.34435275    -7.90743894     1.05176656    -0.14045171    -0.25562854
O      -7.93068799     2.38175672    -3.94522727     1.02161185     0.72505367    -0.45695874
O      -7.82743419     2.36690760    -7.94589809    -0.99695804     0.60060831    -0.12233800
O      -3.83622198     6.32900865    -3.96711590    -1.06878846    -0.74650578    -0.47179379
O      -3.98633872     6.22864115    -7.92942739     1.15188111     1.64042747    -0.11734368
O      -7.91891194     6.37674709    -3.81441522     0.29522240    -0.49631633    -0.76203596
O      -7.84749346     6.39028205    -7.94515905     0.03713005    -0.69739583    -0.07895605
O      -3.79512274     4.38945579    -2.12593456    -0.54960238    -0.54634308    -0.17254667
O      -3.77344545     4.34177769    -6.01152632    -0.58797711    -0.01107397     0.29069671
O      -7.88911561     4.21666897    -9.90174696     0.17895156     0.39394137    -0.42014235
O      -7.90592722     4.44640093    -5.91065407     0.46841868    -0.68449062    -1.60858540
O      -7.89601482     8.70994320    -2.03102472    -0.01018362    -0.21814716     0.34188649
O      -4.03101247     0.08636578    -6.22327592    -0.52900617     0.16190216     0.62019582
O      -7.79329483     0.09244449    -6.14508606     0.26415084    -0.25562196     0.04415211
O      -7.69049011     0.24863683   -10.09976764     0.18237082    -1.48132428     0.80043256
O      -9.75827709     4.39717594    -8.08528090     0.06613734    -1.12591777     0.09359845
O      -2.00961395     4.12799395    -8.06715597     0.30857151    -0.53016773     0.29886151
O      -5.95175145     4.36334545    -4.06106830     0.23108906    -0.75399637     0.02583782
O      -5.82210170     4.77081752    -8.09735497    -1.08648698    -1.01805191     0.54531804
O      -2.03679020     0.27779108    -4.04133396     0.31312360    -0.03721667    -0.24994637
O      -5.64804063     8.61498760    -7.95733849    -0.81394091     0.12365183     0.05149409
O      -5.80576350     0.53196715    -4.00231795    -0.33585795    -0.52387919    -0.24322655
O      -9.70991951     8.15756857    -8.07626768    -0.82541991     0.07713982    -0.48003607
