# total energy = -630.30687462 eV

CRYSTAL
PRIMVEC
        0.00279571     0.02951795    -7.98606283
       -7.83802570     0.01298533    -3.99532603
       -3.92160916     8.71933433     0.00634407
PRIMCOORD
56 1
Li     -3.96724956     2.31241733    -1.89130472    -0.12394897    -0.21020788    -0.33315355
Li     -3.98026525     2.03703127    -5.93216943     0.32153052     0.07007113     0.25063690
Li     -7.71799080     2.43839500    -9.87186988    -0.41198484    -0.45582263    -0.46485777
Li     -7.78963523     2.24604706    -5.74786655     0.06333440     0.20155346    -1.08279560
Li     -3.80758841     6.45850286    -1.97201825    -0.48922967    -0.05571427    -0.47446828
Li     -3.86724538     6.40280114    -5.82228268    -0.02802792    -0.21086189    -0.57562721
Li     -7.71224308     6.52844995    -9.94100163    -0.44229478    -0.10644607     0.11382763
Li     -7.83882008     6.44012201    -5.89860587    -0.20121796     0.24627622    -0.10460584
Ti     -1.85695036     2.29844309    -4.05708398    -1.84596914    -0.43396873     0.15480700
Ti     -5.66333690     6.75150287    -8.00341590    -0.53145323    -0.61140882     0.36916545
Ti     -7.74135579     4.44481545    -7.82786106     0.77969285     1.57634091     1.46036163
Ti     -7.92597907     4.37752851    -3.63138417    -0.38790263     0.09551477    -1.89758364
Ti     -3.90130398     4.21409573    -7.80949542    -0.16014534     1.23443487     1.28729104
Ti     -4.04127013     4.38967484    -3.69953807    -0.13097163    -0.56903656    -1.34593913
Ti     -6.13035495     8.70604248    -2.12722246     0.32779895     0.31057184    -0.59123645
Ni     -5.84531083     2.15144716    -7.97757978    -0.59118724    -0.55901112     0.25686888
Ni     -5.87107262     2.33297020    -3.89566684    -0.38631419    -0.96729728    -0.15331454
Ni     -9.73907908     6.38846058    -7.85787193     0.24220563    -0.29207260    -1.48593838
Ni     -9.84799471     6.80360803    -4.02274629     1.36379444    -0.87711215     0.47213286
Ni     -2.01505633     2.08180496    -8.16345992     0.95931498     0.73193528     2.81955724
Ni     -5.89328377     6.69481668    -4.12898415     0.25166957    -0.36705303     1.99202073
Ni     -2.06101188     0.07744352    -5.95643561     0.15976567    -0.54246817     0.11975808
Mo     -9.92110595     8.60556976   -10.27318326    -0.26393203     0.06394534     0.91385330
Mo     -5.95768317     0.05784038    -6.40833774     2.41259005    -0.13973629    -1.30276841
O      -1.88065371     1.88421548    -1.98471377    -0.18000184    -0.21994047    -1.08385083
O      -1.93567826     1.91366158    -5.96421832    -0.25309863     0.23962126     0.25310868
O      -5.75139154     6.83324406    -2.07781829    -0.43862254     0.05291185     0.35735056
O      -5.92980024     6.90979156    -5.90061159     0.31678218     0.68297124    -1.43653812
O      -5.93260324     2.01412178    -9.80328850     0.89744063    -0.74253289    -0.76763619
O      -5.87188713     1.94719254    -6.14271500    -0.09210167     0.44656361     0.78045489
O      -9.74071256     6.71067293   -10.05163630    -0.61393703     0.59595159    -1.10749849
O      -9.85518751     6.82454956    -5.89714963     0.53274095    -0.69935851     0.61306779
O      -3.84586070     2.35559981    -3.83635043    -0.47425500     1.24686542    -0.81152566
O      -3.95808564     2.28334115    -7.91330376    -0.41254691     0.04337257    -0.47497408
O      -7.81768591     2.43661961    -3.97559125     0.16597447     0.15190907     0.89478243
O      -7.83701173     2.45760676    -7.89897681     1.12248639    -0.51927454    -0.72295143
O      -3.83722329     6.29900046    -4.01675000    -0.35388543    -0.24772578     0.71852487
O      -3.78141925     6.41205068    -8.09016598    -1.26728104     0.34552843     1.20912320
O      -7.85543180     6.29823927    -3.88446585     0.22454603     0.39977982    -0.87560984
O      -7.83908819     6.47866685    -8.01318351     0.36253063    -1.69296384     0.52699620
O      -3.91947677     4.42239918    -1.97289798    -0.07522054    -0.11277735     1.08261522
O      -4.00074432     4.47477476    -6.05924785     0.43020239    -0.40843109    -0.09282397
O      -7.77134859     4.45873016    -9.88409276    -0.11580073    -0.46036126     0.39626900
O      -7.71596648     4.45035441    -6.08612855    -0.05448419    -0.00191292     0.53115135
O      -7.91507764     8.65234149    -9.88567157    -0.09860901     0.57709854    -0.83575247
O      -8.10498624     8.57206037    -5.94964509     0.48302277     0.94580722     0.18585894
O     -11.59120528     8.69052600    -6.04352704    -1.59659411     0.20401285     0.04453320
O     -11.60808239     8.74270158    -9.77986398     0.37944619    -0.31910801    -0.83667520
O      -1.94250199     4.26530807    -3.92865036     0.00118078     0.18948515    -0.45562533
O      -2.00926852     4.05805484    -8.06838260     1.17362448    -0.41509853     0.03804513
O      -5.92937079     4.14786267    -3.92374352     0.07555114     0.61736729    -0.15855645
O      -5.77159943     4.83426319    -7.97987349    -0.69228541    -0.13215178    -0.57633808
O      -2.08561219     0.23925455    -4.02850686     0.49336342     0.50335890     0.42614603
O      -5.78002549     8.67561144    -7.94128798    -0.02082532     0.10033430    -0.33193950
O      -5.96230148     0.48280713    -4.02964991     0.14471577    -0.28031290     0.66042779
O      -9.60037490     8.14919850    -8.18029234    -1.19249788     1.38732827     1.46848978
