# total energy = -630.26076573 eV

CRYSTAL
PRIMVEC
        0.00285542     0.02004370    -7.95977623
       -7.82940539     0.00763210    -3.98158109
       -3.91729101     8.74642787     0.01461334
PRIMCOORD
56 1
Li     -3.89603487     2.04806195    -1.92462905    -0.58865280     0.35164647     0.06835867
Li     -4.02226561     2.19819022    -5.90261823    -0.12751925     0.23544282    -0.24063832
Li     -7.84077585     2.29941311    -9.94424857     0.47451173    -0.18602871    -0.01929633
Li     -7.85398478     2.34118458    -5.76891171    -0.41739457    -0.26472010    -0.48502968
Li     -3.94717343     6.32330650    -1.74950202     0.07400015     0.37000099    -1.14470728
Li     -3.73614985     6.49540788    -6.04851492    -0.48441715     0.06894998     1.06277351
Li     -7.82989443     6.61632259    -9.89210560    -0.59021509    -0.41156499     0.14874828
Li     -7.76348848     6.38130143    -5.94702857    -0.39752973     0.03192504     0.29507860
Ti     -1.94624084     2.13928614    -4.07097623    -1.24922169    -1.93385321     0.34814079
Ti     -5.77422594     6.46632069    -7.91587395    -2.84584374    -0.05706779     0.45710263
Ti     -8.04082472     4.34788763    -7.66083266     1.78042389     2.32983602    -1.43777999
Ti     -7.76747658     4.39192114    -3.68425948    -0.15811911     0.28586804     0.57291765
Ti     -3.79731513     4.32722119    -7.70789302     0.55273269    -0.82184895     0.06565422
Ti     -3.85554455     4.41342211    -3.65953857    -2.00388098    -0.79425893    -0.50613317
Ti     -5.86832670     8.63076172    -1.93315094     0.42915973     1.41362341    -0.05623005
Ni     -5.86334679     2.48751907    -7.86740519    -0.35175806    -0.09186398    -1.43357233
Ni     -5.94382783     2.30845337    -4.13901133     0.46101158    -0.01037762     1.45708248
Ni     -9.83365996     6.66790264    -7.86638380    -0.41535230    -0.23857187    -0.73975909
Ni     -9.78233464     6.51464541    -4.00705599     0.48433283     0.22424365     0.29922609
Ni     -1.88014245     2.13314355    -7.85938120    -1.80650355    -0.28216831    -1.05472989
Ni     -5.87212355     6.54061988    -3.99784879     0.04589524    -0.59368194    -0.38719894
Ni     -6.06004471     8.71260603    -5.93265224     0.45991906    -0.36949883    -0.71448665
Mo     -5.78840093     0.06245884   -10.29493381    -0.85494330     0.04281648    -0.97499692
Mo     -9.82741724     8.73329920    -6.39233266    -0.55192943    -0.84697288     1.00962170
O      -2.09355652     1.89512882    -1.86232053     1.75980186    -0.43601488    -0.61008410
O      -2.16546630     1.85914649    -6.01166116     1.43216527    -0.33546691     0.77445401
O      -5.98741157     6.68796064    -1.97923577     1.31059987     0.28695838    -0.50030254
O      -5.90567266     6.85607481    -5.94340805    -0.27283377     0.45947748     0.42403149
O      -5.93558697     1.99927035   -10.18166068     1.23147195     0.18055786     0.34845679
O      -5.98607548     2.03800863    -5.96508713     0.40850260    -0.26510312     0.35382817
O      -9.76872986     6.91442188    -9.72258512     0.57421410     0.49874577    -0.18032846
O      -9.95077030     6.78092167    -5.99671212     1.07887320     0.81917829    -0.50894344
O      -3.97173417     2.39371677    -3.90552575     0.67672473     0.34546400    -0.70286115
O      -3.90550775     2.43136864    -7.98229206    -0.21367509     0.34044836     0.72755134
O      -7.88597242     2.45378151    -3.88896246     0.16679712    -0.32017145    -0.48892480
O      -7.85943700     2.45925540    -7.94902264    -0.50069336    -0.59008990    -0.18954390
O      -3.95067540     6.27661249    -4.12497106     0.41322577     0.81222973     1.25405787
O      -3.96362779     6.40845494    -7.88014963     1.58380859    -0.12805873    -0.42832940
O      -7.86904857     6.28569111    -3.93759644     0.52238572     1.28769472    -0.57175750
O      -7.92689377     6.31552459    -7.94900379    -0.06295561    -0.30647220     0.85952640
O      -3.95058032     4.40609715    -1.89493843     0.31812198     0.51179482    -0.43977640
O      -3.73519304     4.42443662    -5.97773288    -0.60689680    -0.29684294     0.25477847
O      -7.79367284     4.42711201    -9.88472404     0.35829652    -0.50017140     0.16556708
O      -7.79207518     4.37818613    -5.94774454    -0.50288117    -0.16555313     0.75931487
O      -3.93567549     0.03540733    -9.89967008    -0.00481672    -0.03870761    -0.14647378
O      -4.14827588     0.17010362    -6.25817407    -0.26975412    -0.87698454     0.28267599
O      -7.81277369     0.03411651    -5.94700551     0.05334717    -0.16793893    -0.13114306
O      -7.53381823     0.08337747   -10.18118888    -1.36538407    -0.45994166     0.17368383
O      -2.02736576     4.11432085    -4.09237685     0.26404117    -0.53109841     0.58038001
O      -9.72121056     4.63207991    -3.88395010    -0.32655654     0.30979358    -0.89732346
O      -5.81496505     4.36925969    -4.14644787    -0.12210038    -0.04201317     0.60802812
O      -5.87682546     4.47978567    -7.83905986     0.21291714    -0.38336615    -0.20404336
O      -1.95240370     0.11986951    -4.05606276    -0.12406714     0.99351823     0.53845529
O      -6.02402721     8.34925714    -8.01386026     0.57940808     0.46192839     0.59217407
O      -9.53355180     8.55864119    -4.14793408    -0.58910192    -0.35030328     0.81604628
O      -6.04216104     0.64717655    -8.09308666     0.20163738     0.23683242    -0.27916118
