# total energy = -630.74251759 eV

CRYSTAL
PRIMVEC
        0.00279571     0.02951795    -7.98606283
       -7.83802570     0.01298533    -3.99532603
       -3.92160916     8.71933433     0.00634407
PRIMCOORD
56 1
Li     -3.96341039     2.30017950    -1.87570885     0.18183112    -0.01807338    -0.16404017
Li     -4.06427112     1.88030325    -5.94065571     0.67847888     0.41558913    -0.41393877
Li     -7.86656986     2.28360379   -10.01268747     0.08959411     0.25072859    -0.32479445
Li     -7.84916769     2.24351258    -5.96482541     0.06071681    -0.07003926    -0.28414591
Li     -3.93609127     6.49190361    -1.87654179    -0.05141292    -0.36222149    -0.39678242
Li     -3.76955413     6.35430329    -5.78272235    -0.41581346     0.30604603    -0.33205109
Li     -7.77935399     6.25884952   -10.02242680    -0.13483267     0.50757986     0.44262163
Li     -7.88671823     6.60690007    -5.92077264     0.37756034    -0.42491166     0.23212309
Ti     -2.07557230     2.31073172    -4.09345610     0.88297809     0.42955326     0.38049204
Ti     -5.83535225     6.76386167    -7.89627370     0.21634356     0.69788803    -0.44707974
Ti     -7.76513877     4.40787792    -7.78038161    -0.16206603    -0.15078892     1.05539457
Ti     -7.81832609     4.39287425    -3.87938602     0.11308836    -0.79333931     1.01852078
Ti     -3.85167331     4.33604048    -7.72497635    -0.14286369    -1.13275966     0.48780698
Ti     -4.10630323     4.42680823    -3.81889582     0.45557600     0.28918315     0.45473114
Ti     -6.03714421     8.68833966    -2.11865439    -0.32278807    -0.32705441    -0.62669947
Ni     -5.92229473     2.34666309    -8.05655636     1.11161245    -0.14226504     0.79710976
Ni     -5.86370659     2.20153831    -4.08090701    -0.52250254     1.34409698     0.06248123
Ni     -9.79864894     6.45433564    -7.78720283    -0.43121304     0.02079298     0.14071236
Ni     -9.72605892     6.30547768    -4.07010893    -0.58464943     0.06502567     0.78245618
Ni     -1.91915768     2.13787028    -8.01033047    -0.23354099    -0.26293620    -0.20501820
Ni     -5.84006382     6.83280763    -3.96838726    -0.36453966    -0.71520041     0.14696897
Ni     -2.04178224     0.06332874    -5.98221701     0.54875565    -0.55032335     0.08793636
Mo     -5.96529605     0.04449313   -10.24948943     0.08313842    -0.58878073     0.37784479
Mo     -9.84645540     8.65046862    -6.20066004    -0.47876213    -0.68766382    -0.37108003
O      -1.94855014     1.85257066    -2.09282003     0.20906912     0.68471158     0.23089147
O      -2.10408896     1.87072709    -6.01440232     0.63568611     0.23059878    -0.07593218
O      -5.83082366     6.63303117    -1.99793818    -0.57510356     1.66157599     0.41810392
O      -5.77910110     6.99420818    -5.85455708    -0.15061518    -0.99237744    -1.11768111
O      -5.89866616     2.06530972    -9.98170943     0.11412873    -1.08265851    -0.24425159
O      -5.87952954     2.05409785    -6.03378989    -0.36352785    -1.28731996    -0.09374852
O      -9.80828600     6.92298508    -9.67945344     0.72061332     0.74833715    -0.70527851
O      -9.88158715     6.59365779    -5.88568361     0.46303990     1.69006945    -0.73817623
O      -3.92251829     2.37346940    -3.97685956    -0.49488411    -0.08837849    -0.44806713
O      -3.93930399     2.37947811    -7.87405920    -0.53657045     0.23929658    -0.88935516
O      -7.77636564     2.28506376    -4.11241193    -0.32577050     1.13357922     0.82273705
O      -7.80603156     2.48419322    -8.08439806    -0.79938437     0.10366907     0.68243992
O      -3.94451522     6.39153246    -3.85587292     0.52409349    -0.17547746    -0.47163796
O      -3.89745231     6.24146146    -7.98303193     0.06058496     1.06678969     0.37858086
O      -7.84114361     6.44803242    -4.01043017    -0.00678399    -1.34621375     0.54186935
O      -7.70171936     6.41512048    -7.85496655    -0.31524583    -0.18106491    -0.75397893
O      -3.83562724     4.29717024    -2.09156616    -0.38428803    -0.01150094     0.47005021
O      -3.77066520     4.44440601    -5.96302761    -0.09306573     0.11952433    -0.04856790
O      -7.82479566     4.34099432   -10.00010635    -0.41085647     0.82070949    -1.50775241
O      -7.98107144     4.55002784    -5.98072309     0.35478299    -0.56896240    -1.45153498
O      -3.95939551     0.02631730    -2.09813374    -0.19876192    -0.21441248     0.19876425
O      -7.97291492     8.50025797    -5.96309823    -0.95852670     1.16420475    -0.22968045
O     -11.66451618     8.68198860    -5.89925450     1.15434112    -0.44772619    -0.44878481
O     -11.65893153     8.71295044   -10.23968189     0.45476339     0.52256723     0.33307731
O      -2.02614399     4.22068031    -4.07482014     0.91802930    -0.50988849    -0.02060859
O      -1.90272729     4.00775018    -0.11327558    -0.36766864     0.08029881     0.34183303
O      -5.94833282     4.15984150    -4.20465325     0.41440256    -0.47046959     0.32094440
O      -5.83210625     4.43742462    -8.00886401    -0.28178287    -0.30674456     0.32379575
O      -1.81625554     0.23616005    -4.07478131    -0.25799081     0.00984696     0.91360057
O      -5.86243110     8.72560769    -8.11431822    -0.22344484    -1.28384535     0.76126037
O      -5.73114204     0.37290565    -4.07611291    -0.41483376    -0.48798588     0.33410392
O      -5.91084410     0.42246620    -7.99129521    -0.09557636     0.88852284    -0.76399051
