# total energy = -630.62617526 eV

CRYSTAL
PRIMVEC
        0.00279571     0.02951795    -7.98606283
       -7.83802570     0.01298533    -3.99532603
       -3.92160916     8.71933433     0.00634407
PRIMCOORD
56 1
Li     -3.94372584     2.42960972    -2.07994881    -0.02508053    -0.32001724     0.93350561
Li     -3.88655465     2.17984468    -6.01734988    -0.24100596    -0.35721761     0.01024082
Li     -7.66783226     2.57253029    -9.95609738    -0.51749671    -0.73188539     0.09985364
Li     -7.65350030     2.14896774    -6.03468612    -0.73708447     0.14120193     0.27454946
Li     -3.90988659     6.27864307    -1.85439375    -0.05077897     0.30740193    -0.21206496
Li     -3.92896266     6.33935051    -5.72557275     0.18041546     0.51548871    -0.61382123
Li     -7.87703493     6.35379858   -10.03356183    -0.15357019    -0.19921924     0.37267771
Li     -7.66880283     6.50884078    -5.65787357    -0.41571141     0.15329059    -1.17191953
Ti     -1.97190735     2.13819237    -4.10279843     1.34860095     1.20695580    -0.11624281
Ti     -5.86181939     6.74312311    -8.00936167    -0.50441147     0.27318652    -0.51410757
Ti     -7.91851488     4.38602917    -7.68718713     0.97343833     0.59757487     0.51303869
Ti     -7.88304678     4.20199057    -3.91298794    -0.62888549     2.43367696     1.44049923
Ti     -3.88528609     4.31767452    -7.62795752    -0.50203712     0.25858398    -2.78483579
Ti     -4.02239715     4.44088063    -3.79033176    -0.14881202    -0.44577000     1.05357592
Ti     -2.21865373     0.12498001    -2.15817417    -0.28259557    -2.54311202     1.33764448
Ni     -5.88670513     2.40660271    -7.96425121     0.55381570    -0.20525131    -0.58413749
Ni     -5.79772777     2.13213538    -4.07006777    -0.42234699     0.50563865    -0.55874180
Ni     -9.80156318     6.55764659    -7.81417603     0.66490076    -0.42104754    -1.39923455
Ni     -9.77064800     6.47752777    -4.08056819    -0.21502749     0.70358874     0.91019201
Ni     -1.79142459     2.13901602    -8.00450021    -1.03603721    -0.66778197     0.04582703
Ni     -5.82970207     6.53183489    -3.91012302    -1.06138967    -0.03756845     0.20397768
Ni     -5.85992575     8.70007273    -5.89663289    -0.35559878     0.34721607    -0.42659034
Mo     -6.08103483     0.11457104   -10.25842199    -0.34404882    -0.90720489     1.22424619
Mo     -9.78615697     8.60132305    -6.44571988     1.57839504     0.67746420     0.70071260
O      -1.85534386     1.90841654    -2.04728713     0.34491819     1.59900275     0.83557290
O      -1.82229972     1.91702636    -5.99220374    -0.81124239    -0.48112710    -1.07066011
O      -5.92892877     6.83582173    -2.04196426     0.44434347    -0.44033769     0.93848609
O      -5.81860146     6.85777475    -5.76257147     0.02141646     0.27053708    -1.07801807
O      -5.90257755     2.03582223   -10.15003778     0.64260766    -0.17317198     0.31885348
O      -5.84673361     2.00878638    -5.97503003     0.88908336    -0.62654432     0.04909362
O      -9.82684185     6.96805791    -9.72139898     0.16339982     0.66458520    -0.24370643
O      -9.71163212     6.72559111    -6.00476991    -0.28365974    -0.26858079     0.58673900
O      -3.80077865     2.43488970    -3.99008862    -1.41338364    -0.06705153    -0.41629977
O      -3.89208148     2.44757457    -7.98507218     0.34205833     0.27988109     0.18423444
O      -7.74942751     2.34761821    -4.02419410     0.04606525    -1.29992708    -0.09927841
O      -7.84329769     2.49471489    -8.01043481     0.85498397    -1.00298112    -0.04458528
O      -3.84004366     6.39163454    -3.81062887    -0.09845006    -0.39412427    -0.49509555
O      -3.98922948     6.51887722    -7.89485806     0.16717020    -1.28367030    -0.13305044
O      -7.82550993     6.34988679    -3.91443271    -0.07457960    -0.54828025    -0.03684726
O      -7.86209109     6.32174048    -7.93580074     0.58527542     0.27346280     0.08140028
O      -4.09077652     4.37142591    -2.02040165     0.42903523    -0.04350405    -0.50044926
O      -3.91466059     4.35984281    -5.92347672     0.31464657     0.38011449     2.19943118
O      -7.88064709     4.32106144   -10.08841552    -0.04298587     0.78775412    -0.25337782
O      -7.79227427     4.26266124    -5.92361520    -0.10406328     0.52140769    -0.48538571
O      -3.97342999     0.17984191    -2.11246979    -1.53480064    -0.09552036    -0.04521080
O      -8.00542121     8.70522631    -5.90939901     0.18982564     0.25589041    -0.48414614
O     -11.48470128     8.70755126    -6.03006854    -1.23555845     0.19624433    -0.02690140
O      -7.83617012     0.11891905    -9.92263356     0.69763324    -0.21310065    -0.66379757
O      -1.89186448     4.21444962    -3.89502183    -2.05901928    -0.33920561    -0.62436262
O      -9.88760589     4.64538457    -4.08361129     0.89355419    -0.04493786    -0.09484478
O      -5.94335351     4.41892105    -4.07637315     1.23956465     0.00692541    -0.00167414
O      -5.85736615     4.34961097    -7.93667849     0.03531001    -0.01710698    -0.11434116
O      -2.06369633     0.23372966    -4.02118886     0.64300610     0.13184090    -0.13807503
O      -6.02235878     8.53957075    -8.10758951     0.59136167    -0.11093574     0.89109513
O      -9.90830005     8.57347135    -4.03052671     0.41492092    -0.49920413    -0.09498581
O      -5.85340391     0.48018623    -8.18762068     0.18954361     1.30992469     0.26568379
