# total energy = -631.04254320 eV

CRYSTAL
PRIMVEC
        0.00279571     0.02951795    -7.98606283
       -7.83802570     0.01298533    -3.99532603
       -3.92160916     8.71933433     0.00634407
PRIMCOORD
56 1
Li     -4.02968185     2.39511584    -1.85098663     0.31691479    -0.99414818    -0.36422151
Li     -3.92571998     2.18301454    -5.92259149    -0.11838080     0.08835795    -0.16029569
Li     -7.86510680     2.42695455    -9.90738745    -0.04087825     0.14668268    -0.42697569
Li     -7.75890228     2.09978011    -5.75719857    -0.10209247     0.06801348    -0.57794022
Li     -3.99731556     6.55511524    -2.04430937     0.77471711     0.13206050     0.24131420
Li     -3.73333614     6.40963096    -5.97260212    -0.75850917    -0.28314827     0.24886214
Li     -7.78941661     6.51372294    -9.87893499    -0.69805316    -0.27163402    -0.51391663
Li     -7.81917975     6.58399077    -6.05537434     0.16506802    -0.02848490     0.69144624
Ti     -1.93556929     2.10951911    -3.82758398    -0.92534213    -0.30418278    -0.48037034
Ti     -5.86322346     6.52351750    -7.98276481     0.90774653    -0.02100805     0.92896942
Ti     -7.98064922     4.34615176    -7.71602430     0.54799891     0.17820970     0.41127075
Ti     -7.85362200     4.49752653    -3.80007840    -0.70936543    -0.02593595     0.48268161
Ti     -3.85644298     4.28819175    -7.79764682     0.34063460     0.47728526     0.85008495
Ti     -4.05372601     4.30414378    -3.72147424     0.85383824     0.66851035    -2.94754468
Ti     -6.17322008     8.65276573    -1.99541547     0.36972322     0.64067237     0.40642174
Ni     -5.90789703     2.39126408    -8.01003291     0.77006655     0.43323276    -0.33449303
Ni     -5.87412220     2.30991712    -4.03164136     0.23533057    -0.85477086     0.88121106
Ni     -9.80430795     6.50530952    -7.89952600    -0.02381881     0.12277799    -0.63158302
Ni     -9.76576847     6.53930125    -4.03178784     0.31302544     0.53304360    -0.25371304
Ni     -1.91925269     2.15624269    -7.86768747    -0.13589283    -0.01754465    -0.68415178
Ni     -5.86536517     6.54404213    -4.02898843     0.33114039     0.39197784    -0.14337767
Ni     -2.02670219     0.02617210    -5.99846108     0.10525827    -0.57669445    -0.33728341
Mo     -6.01915933     0.11205450   -10.27366403    -0.88209291    -0.71582096     0.61609030
Mo     -9.74385280     8.71543610    -6.46660370     0.89573365    -0.80754491     1.24938814
O      -1.89425835     1.96504630    -1.93584967    -0.26664772    -1.03835196     0.51962958
O      -2.09485101     1.90492590    -6.03808833     1.41218052    -1.01706071     0.46568530
O      -5.85622119     6.75776810    -1.97075270    -0.26799726     0.03277493    -0.49563525
O      -5.88084281     6.73443722    -6.01696409     0.27244609     1.25099892    -0.01132732
O      -5.91477183     2.15100826   -10.07991142    -0.05305132    -1.07639841    -0.15810526
O      -5.82293361     1.84675233    -5.82581498    -0.06233531     1.23972883    -1.26571386
O      -9.79074729     6.94430679    -9.78022729     0.09528821     0.70836829    -0.44589935
O      -9.71122932     6.77577996    -6.06303961    -0.36846041     0.49344112     0.35268639
O      -3.88586181     2.23402982    -3.89485886    -0.48069820     1.03870421    -0.31348198
O      -3.87096433     2.37841436    -7.99288008    -0.17728123    -0.02414117     0.00628499
O      -7.82176246     2.51075502    -3.95768694    -0.38525367    -0.14947880     0.33300917
O      -7.87129656     2.38833214    -7.87324606     0.63018514    -0.00971881    -0.79612048
O      -3.84477765     6.36328302    -3.96444404    -0.30624772    -1.34266897     0.11193781
O      -3.84319312     6.30506735    -8.05032068    -1.25750136     0.27000004     0.24958343
O      -7.80111408     6.52841598    -3.95536717    -0.46528232    -1.04510195    -0.23727196
O      -7.87424716     6.24000498    -7.99413907     0.44400722     1.11333635     0.14840364
O      -3.89642158     4.16068300    -2.04170565     0.13952787     1.00568223     2.11813139
O      -3.77855584     4.20572971    -6.04183475    -0.30242354     0.43571416     0.43080114
O      -7.77084561     4.49827602   -10.00935347    -0.16257190    -0.41650828     0.07180169
O      -7.78137082     4.39839428    -5.97088753    -0.03078376     0.09495681    -0.42535587
O      -7.96600587     8.73700727    -9.99084746     0.52881766     0.19006155    -0.12727152
O      -7.87799801     8.72074271    -6.14056509    -0.17720246    -0.32849497     0.02020391
O     -11.48342857     8.70862995    -6.15703943    -0.77184745    -0.24478894     0.36459234
O      -7.79064184     0.06843074   -10.03336798     0.08046976     0.18048797    -0.27648968
O      -2.00917594     4.08863663    -3.99341657     0.20142119    -0.30004620     0.02637720
O      -9.78260754     4.67966861    -4.05300322     0.51809403    -0.04883880    -0.17160828
O      -5.89589918     4.52812946    -4.10474556     0.25556264    -0.00148045     0.08771302
O      -5.82501233     4.42522581    -8.05109527    -0.51539564    -0.25038432     0.41005632
O      -1.84350715     0.09867469    -3.84963532    -0.43993188     0.64626056    -0.54903949
O      -5.87014940     8.41910099    -8.03166101    -0.00345089    -0.02141528    -0.33950331
O      -5.85536917     0.08378549    -4.06968350    -0.08134759    -0.73469873     0.43152390
O      -5.79630862     0.54458227    -8.22932620    -0.39057918     0.83334422     0.35779668
