# total energy = -630.56517769 eV

CRYSTAL
PRIMVEC
        0.00279571     0.02951795    -7.98606283
       -7.83802570     0.01298533    -3.99532603
       -3.92160916     8.71933433     0.00634407
PRIMCOORD
56 1
Li     -4.06318863     2.52552225    -1.81562066     0.28745194    -0.93266265    -0.07094978
Li     -3.94388701     2.59932834    -5.96292949    -0.09637322    -0.57503547     0.51296947
Li     -7.86547925     2.19259935   -10.05069634     0.38799926    -0.34615456     0.12465753
Li     -7.85288950     2.21936983    -5.96327195    -0.17089982     0.22015166     0.24572922
Li     -3.91350714     6.48193952    -1.88690741    -0.05206755     0.10348378    -0.26624912
Li     -3.89648733     6.56669314    -5.90113005     0.18371720     0.26769217    -0.07226191
Li     -7.80627143     6.36783275   -10.02200467    -0.23959462     0.56058916     0.25175442
Li     -8.04095252     6.33891310    -5.95132258     0.12131880    -0.19646555    -0.09175455
Ti     -1.95011136     2.32986602    -4.15835231    -0.34417690     0.15332357     1.10769921
Ti     -5.87517665     6.74688381    -7.88797256    -0.40759730     1.26327384    -0.74664693
Ti     -7.63656498     4.42128720    -7.75274409    -1.08978782    -0.82914660     0.27545607
Ti     -7.94770288     4.34453909    -3.69410347     0.23705254    -0.61694762    -0.25364064
Ti     -3.86991603     4.46137272    -7.63194412     0.75675864     0.70853517    -0.90212751
Ti     -4.10982647     4.42452255    -3.59402971    -0.01164339    -0.35725276    -0.43853920
Ti     -5.70609834     8.70576547    -2.13051238    -0.39328518     0.22749262     0.03592828
Ni     -5.86929396     2.20851360    -7.86215000    -1.07456018    -0.63511335    -1.39461058
Ni     -5.83146022     2.17812708    -4.04997878    -1.55357309     0.22125527     0.69893811
Ni     -9.83834340     6.29856804    -8.12429822     0.82125480     0.61609073    -0.09388359
Ni     -9.80698123     6.76197484    -4.00814162    -0.01524833    -0.51408106    -0.31359218
Ni     -2.04744293     2.08441727    -8.02738260     0.29559697     0.19842006    -0.42864358
Ni     -5.95430511     6.60131224    -4.11511258     0.15404659     0.07115941     0.83538406
Ni     -6.07044749     8.71898268    -5.84002859     0.99989318     1.40220857    -1.41258868
Mo     -9.76926997     8.75131122   -10.31519036    -0.38360178     0.93339734     0.88952367
Mo     -9.68619026     8.73950165    -6.35972566    -0.55508218     0.05736580    -1.16107137
O      -2.08434238     1.93945739    -2.04374620     0.35453097    -0.51321998     0.83060142
O      -2.03314834     1.86069021    -6.07540232     0.02826661     0.20957210     0.92617625
O      -5.97017918     6.77474689    -2.13164362     0.94167245     0.34095860     0.14445321
O      -6.16406802     6.91865032    -5.99373587     1.23033547    -0.24283193     1.03002408
O      -5.95580599     1.95521923    -9.79158358     1.08613009    -0.38719445     0.17496219
O      -5.84443029     1.97739040    -6.06064244    -0.64944318    -0.51096068     0.61604236
O      -9.75919907     6.81505416   -10.16251258    -0.60125038    -1.27957376     0.23822668
O      -9.89555586     6.85951965    -5.87050896     0.76749506     0.03425600     0.12342896
O      -3.98985649     2.39798050    -3.97714605     1.51127397     1.02115462    -0.11148332
O      -4.09497661     2.56147931    -7.83130777     0.30458486    -1.20651348    -0.44320542
O      -7.71488530     2.44703395    -4.01298970    -0.63484172    -1.12722463     0.07754755
O      -7.86797683     2.36098744    -7.96927578     0.28791162     0.60337138    -0.23435964
O      -3.90462976     6.31182703    -4.05058737    -0.75026140    -0.55026979     0.98239114
O      -3.93655185     6.43975344    -7.87968200     0.26054037     0.72934585    -0.43010430
O      -7.81060864     6.23398400    -4.09923044    -0.60262747     0.39702814     0.64376071
O      -7.86506942     6.34595605    -7.98325356    -0.40396590    -0.55214269     0.10604472
O      -3.84577095     4.33903473    -1.81241403    -0.31868615     1.12643453    -1.63878346
O      -3.83129034     4.53615112    -5.88655603    -0.18342640    -0.53791999     0.31911041
O      -7.77006201     4.43611261    -9.90385047    -0.40002083    -0.41784925    -0.29822040
O      -7.91833413     4.24338282    -6.01237516     0.38387596     0.67535615    -0.73279920
O      -8.00650864     8.60094850   -10.00458254     0.62837350     1.00103890    -0.46857824
O      -4.03947359     0.09694976    -5.97994803    -0.47498906    -0.32963933    -0.63363890
O     -11.67630474     8.67868904    -6.05454118    -0.23682329     0.74789814    -0.42880544
O      -7.67258083     0.07051246   -10.06374297    -0.75624339    -0.71716935     0.52555182
O      -1.93085905     4.29111518    -4.10421492    -0.50189759     0.07015208     0.37510104
O      -1.99528678     4.00525230    -7.98633004     0.66729726    -0.42417392     0.36963270
O      -5.92853750     4.01499998    -3.87050880     0.68128035     0.98537683    -0.41640722
O      -5.77508337     4.85187167    -7.81855451    -0.96769353    -0.98933715    -0.39553679
O      -2.02729450     0.36471787    -3.96502577     0.09486900    -0.37323128    -0.25330291
O      -5.97577927     8.66893698    -8.08368485     0.29596419    -0.09448321    -0.00254703
O      -5.96926928     0.23602915    -4.15609429     0.63748501     0.48315078    -0.58084301
O      -9.71475487     8.17137414    -8.16624668    -0.50858338    -0.04094840     2.31129880
