# total energy = -631.08374105 eV

CRYSTAL
PRIMVEC
        0.00279571     0.02951795    -7.98606283
       -7.83802570     0.01298533    -3.99532603
       -3.92160916     8.71933433     0.00634407
PRIMCOORD
56 1
Li     -3.95265249     2.10240112    -1.85124493    -0.16917736     0.31994209    -0.45905534
Li     -3.96480192     2.35974939    -6.05411753     0.10272287    -0.34781241     0.64337015
Li     -7.83634620     2.46256976    -9.92380102     0.07244205    -0.22837502    -0.17715741
Li     -7.88123195     2.37117487    -6.00032905     0.30274487    -0.05205131     0.52732999
Li     -3.77769155     6.56653589    -2.13598063    -0.94406686    -0.17099641     0.41941039
Li     -3.85187268     6.15007106    -5.90679344    -0.16483545     0.72517400    -0.74692323
Li     -7.83298883     6.59961282    -9.90498290    -0.43263267    -0.11355751    -0.11671715
Li     -7.81002173     6.63187440    -5.93331994    -0.36258984     0.01436515    -0.09454465
Ti     -1.89466679     2.20566311    -4.01398507    -0.24749445     0.25944215    -0.10365501
Ti     -5.72921017     6.65220549    -8.03521603     0.57238257    -0.68369357     0.36196788
Ti     -7.74720402     4.51369655    -7.73293269    -0.31351882     0.15814919     0.13662372
Ti     -7.79795334     4.38150786    -3.68514486     0.75809753    -0.36741441    -0.19091850
Ti     -3.64312250     4.21542349    -7.86244248    -0.50792137     1.15952324    -1.15098414
Ti     -3.96118195     4.27179347    -3.76669040    -0.45868568     0.49251101     1.81661139
Ti     -2.21895343     0.11118447    -1.96465363    -0.38122172    -0.58985821    -0.05532585
Ni     -5.84353088     2.25868339    -7.89577023    -0.37579252    -0.12409446    -0.43108685
Ni     -5.82961771     2.10131873    -3.97060417    -0.84001261    -1.34312097    -0.34575367
Ni     -9.88762157     6.35912142    -8.06378383     0.19215753     0.35914036    -0.27458437
Ni     -9.71335156     6.65738046    -4.07656806    -0.40772348    -0.48594262     0.35793638
Ni     -1.94215412     1.94199235    -7.91988925     0.11413697     0.98089503    -0.28865680
Ni     -5.86334025     6.57213236    -4.04680770     0.59349460     0.33511687     0.09724127
Ni     -2.08191046     0.11846142    -5.94963603     0.15110384    -1.22181017     0.43397455
Mo     -6.09830673     0.11774476   -10.15715699     0.64789387    -0.97709743    -0.50880654
Mo     -5.90980393     0.13144076    -6.45300269     0.00428054    -0.45279915     0.59212407
O      -1.97733187     2.05556850    -1.93291402    -0.15167221    -1.21652096     0.09844756
O      -2.02620961     1.96372008    -5.97122332     0.39712387    -0.00607954    -0.61919798
O      -5.87920283     6.81053723    -2.02865380    -0.09364704     1.02861440    -0.24861350
O      -5.88266930     6.97117815    -5.93427199    -0.38613434     0.13668397     0.18513617
O      -5.87724655     1.96824503    -9.83712534    -0.18740344    -0.08774962     0.38308854
O      -5.84299816     2.00650356    -6.02221351    -0.51939770     0.26929960     0.17442112
O      -9.80290474     6.72108995   -10.12383188     0.09832872     1.24138797    -0.01132093
O      -9.83420669     6.83005835    -5.99599676     0.73849592     0.39933653     0.30526085
O      -3.90353402     2.27308957    -3.93225800     0.42677940     0.80672504    -0.09403239
O      -3.87822309     2.28194936    -7.96821503    -0.37839533     1.01352308     0.10929922
O      -7.94539620     2.35777061    -4.05380708     0.69969019     0.36845274     1.24990567
O      -7.79293883     2.48565891    -7.99780584    -0.12537524    -0.47834699     0.31997996
O      -3.91161939     6.23667196    -4.09812290    -0.83896043    -0.57159128     0.70364733
O      -3.91954076     6.45768138    -7.97580978     0.76019043    -0.15118149    -0.26630868
O      -7.69554966     6.30370124    -4.01867971    -0.23071036     0.14765225     0.29586642
O      -8.05710032     6.41463604    -7.86214224     1.21680650    -0.66690453    -0.85812326
O      -4.14283530     4.42139513    -1.94560711     1.01397366    -0.26767533    -0.72977539
O      -3.92500863     4.35258129    -6.13156960    -0.28414068    -0.66676679     0.49943929
O      -7.69721708     4.38060380    -9.86471831    -0.47831565    -0.02839226    -1.77637462
O      -7.87454234     4.29615162    -5.99919380     0.16618332     0.15685561     0.35570002
O      -4.08180230     0.06402348    -9.89772726     1.79940259     0.22584501    -0.34366902
O      -4.09731706     0.13821965    -6.15408617     0.38543453    -0.46185054     0.21639738
O      -7.68924744     0.09162555    -6.11987715    -0.15702819     0.19124939     0.28702097
O      -7.82090517     0.10895481    -9.96837231    -0.68754877     0.29747233    -0.53816078
O      -2.02940983     4.27626190    -4.12662846     0.27319216     0.29276451     0.52681715
O      -9.67543109     4.75293175    -3.99791811    -0.50777918    -0.29059864    -0.15256756
O      -5.81643105     3.85257369    -3.97795845    -1.29197962     1.83430184    -0.53515542
O      -5.88668735     4.76833961    -7.89996965     0.32916208    -0.26392716    -0.05077805
O      -1.93932533     0.37155573    -3.96156366    -0.13845672    -0.85421281     0.42496397
O      -5.95673325     8.56355992    -8.00283978     0.31811375     0.30464244    -0.68883964
O      -9.70583997     8.60564706    -3.99816059    -0.66959067     0.25076628     0.35410194
O      -9.92914210     8.26753617    -8.20522077     0.27775990    -1.17121800     0.18585359
