# total energy = -630.80469058 eV

CRYSTAL
PRIMVEC
        0.00285542     0.02004370    -7.95977623
       -7.82940539     0.00763210    -3.98158109
       -3.91729101     8.74642787     0.01461334
PRIMCOORD
56 1
Li     -3.86351640     2.49888440    -1.94543318    -0.29261595    -0.65585882     0.16962068
Li     -3.98197365     2.08902065    -6.03652785     0.21552627     0.02994971    -0.04825563
Li     -7.69215531     2.08481348    -9.90860252    -0.89420570     0.33023744    -0.19865485
Li     -7.87479754     2.23797640    -5.79960236     0.20396249    -0.00876039    -0.23538189
Li     -3.88731157     6.32440122    -1.97202004    -0.40046555     0.08420840     0.11362228
Li     -3.91966642     6.82595048    -5.89561082    -0.08893458    -0.77320875     0.05285614
Li     -7.82595408     6.44077986   -10.04848546    -0.21544491     0.71126554     0.42174095
Li     -7.80078147     6.59209333    -5.88336235    -0.19282528    -0.03612304     0.06404714
Ti     -2.00701113     2.23941985    -4.17705846     1.04483567    -0.15120751     0.66318312
Ti     -5.95020414     6.73043226    -7.95487075     1.34810931     0.21921958    -0.41248250
Ti     -7.75562720     4.38312239    -7.70300486    -0.87648959    -1.17645368     0.38013404
Ti     -7.82830635     4.40505576    -3.70665180     0.87163051    -1.28022694     0.64199960
Ti     -3.92438255     4.36097267    -7.74115305     1.01745299     0.07625997    -0.23276385
Ti     -3.91279311     4.34176363    -3.79121024    -0.43414114     1.83010613    -1.10262495
Ti     -6.00574894     8.73989829    -2.20831796     0.32475566    -0.66265871    -0.72711028
Ni     -5.84044282     2.40464505    -7.91170374    -0.89380233    -1.37539447    -0.14925959
Ni     -5.76273030     2.27627042    -3.97853462    -1.95830364     0.57903752    -0.18059349
Ni     -9.82660744     6.40522336    -7.93663542     0.32387425     0.13058320     0.09157955
Ni     -9.79365624     6.32118826    -3.96901160     0.01859710     0.33171833     0.02013321
Ni     -2.05653651     2.09243603    -8.03076963     1.12826552     0.61256118     0.77095164
Ni     -5.84434752     6.60939408    -3.96820806     0.34579094    -0.11766697    -0.32994396
Ni     -1.93411927     0.02219384    -6.06236538    -0.28304173    -0.59093829     1.20794530
Mo     -5.91113742     0.08047937   -10.10288403    -0.04939642    -1.02845855    -0.78451665
Mo     -9.81665677     8.72302306    -6.16990272     0.03500903    -0.23456542    -0.47013479
O      -2.02179373     1.81936255    -2.00637382     0.14377927     1.33922530     0.58581235
O      -2.00470080     1.88352113    -6.05091412     0.09777326    -0.12826853    -0.89046122
O      -5.84770075     6.78544572    -2.04092515    -0.07325287    -0.02178796     0.45987844
O      -5.79842171     6.88677746    -5.89092894    -0.68867928     0.32048891    -0.75508044
O      -5.86302048     2.06174776    -9.86186811     0.61925115    -0.35303872    -0.52404996
O      -5.80844949     2.05782786    -5.92236588    -0.48748224    -0.42514669    -0.19321205
O      -9.86680794     6.88282884    -9.94460933     0.90144626     0.40429130     0.14589984
O      -9.88523626     6.81838781    -6.00497557     0.85721516     0.10658398     0.45970068
O      -3.89220639     2.37899088    -3.95545566     0.10683573    -0.50089450    -0.44566010
O      -3.94653486     2.31608263    -7.99548600     0.53182422     1.29514122     0.16512308
O      -7.79597585     2.37086690    -3.89044662    -0.06750354     1.03771739    -0.10497147
O      -7.95760942     2.39560705    -7.91129239     1.58694923     0.85255178    -0.30627327
O      -3.82546247     6.34710037    -3.89847916    -0.90231433    -0.29794172    -0.71034961
O      -3.95804109     6.36505262    -8.00109373    -0.48787916    -0.47649008     0.34082627
O      -7.79384614     6.35714885    -4.01024709    -0.24545851    -0.25475050     0.24367136
O      -7.87887184     6.33318876    -7.92834404     0.80952907     0.73374620     0.23757760
O      -3.95253745     4.34329047    -2.06212293     0.33978005     0.25955833     1.72819231
O      -4.18258844     4.39826484    -6.04917683     0.94402688    -0.11848738     1.18548168
O      -7.86631900     4.63342125    -9.87276936    -0.04145664    -1.05910833    -1.30795012
O      -7.95356355     4.41613317    -5.93554222     0.22023759     0.15501063    -0.70845684
O      -7.86538984     8.65476404    -2.14756776    -0.65059243     0.02009805     0.42142488
O      -7.93918458     8.70586190    -5.97541345    -0.82253152     0.03730594     0.15880716
O      -7.69836336     0.10486611    -5.87419417     0.42956540    -0.26093969    -0.57646561
O     -11.65011743     8.73586591    -9.94288690     0.97813778     0.73387346    -0.36525564
O      -1.99428466     4.15026268    -4.11116836     0.52979961     0.62282303    -0.12068699
O      -9.78180855     4.39638766   -11.91908276    -0.26710206    -0.08779316    -0.11236713
O      -5.76695708     4.20879931    -4.00141159    -2.51616427    -0.14229831    -0.03040536
O      -5.86858762     4.34607182    -7.99700874    -0.89856905     0.19527539    -0.24206764
O      -1.75315828     0.30962362    -4.10510229    -0.85532275    -0.94422305     0.93657554
O      -5.84171599     8.54986993    -8.00174238    -0.57128929    -0.21898749    -0.07672538
O      -5.86639076     0.41824476    -3.98473720     0.15552374    -0.25629924     0.71326156
O      -5.83028752     0.46700974    -7.99129644    -0.18660833     0.81390410     0.09668102
