# total energy = -630.35671454 eV

CRYSTAL
PRIMVEC
        0.00279571     0.02951795    -7.98606283
       -7.83802570     0.01298533    -3.99532603
       -3.92160916     8.71933433     0.00634407
PRIMCOORD
56 1
Li     -3.88269932     2.65244747    -1.91922363     0.09951931    -1.05678962    -0.12447932
Li     -4.10272455     2.35375074    -6.02084251     1.04016607    -0.41878928     0.11536276
Li     -7.72883420     2.38000151   -10.02162262    -0.02839748    -0.03769951     0.11010130
Li     -7.81193372     2.28086500    -5.86316620    -0.19098016     0.03360120    -0.68030219
Li     -3.87966427     6.55874626    -1.99590181    -0.01107622     0.08360888     0.13971870
Li     -3.82674686     6.38850171    -5.86453416    -0.68260059    -0.00540353    -0.54421873
Li     -7.84589533     6.39269630    -9.88303160    -0.02290907     0.37197476    -0.80932416
Li     -7.98813764     6.78087693    -5.87483277     1.08731328    -0.87611260    -0.03059548
Ti     -1.93044843     2.27079316    -4.17463347    -0.90343039    -0.18640229     0.25372338
Ti     -5.86018260     6.67267660    -8.00381760     0.15249621    -0.44879214     0.48331790
Ti     -7.82022009     4.51173972    -7.78954041     0.33495448    -1.42561641     1.92325798
Ti     -7.81345177     4.43382601    -3.80900926    -1.03195574    -0.01828843    -1.02534188
Ti     -3.80677138     4.34873090    -7.73356559    -0.34042879    -0.55964916    -0.59055001
Ti     -4.12014117     4.50686414    -3.74887482     0.85380170    -1.80009276    -0.91078537
Ti     -2.20327645     0.09692709    -1.99092941    -0.82850936     0.80627728    -1.07106247
Ni     -5.87456226     2.21250993    -7.90201938    -0.44383795    -0.47066788    -0.89408917
Ni     -5.81612542     2.33986690    -4.03802779     0.09490479    -1.63887004     0.20425495
Ni     -9.82999759     6.36758756    -8.00113690    -0.04412586    -0.15861363    -0.09844843
Ni     -9.79872897     6.64726483    -3.92875769     0.15150091    -0.05783673     0.35941054
Ni     -1.75049087     2.06132727    -7.94088709    -1.61851199     0.01257887    -0.20482476
Ni     -5.98632979     6.77122355    -4.00816523     1.73065164     0.04677109     0.05297571
Ni     -5.87874480     8.69558402    -5.99797770    -0.61166834     0.84819231     0.52286208
Mo     -9.96415588     8.64908705   -10.28303286     2.11755879     1.71380889    -0.52422728
Mo     -9.80240806     8.69329352    -6.31981492    -0.96941957     0.08934771     0.17395162
O      -1.93496618     1.95587455    -1.84913454     0.49216735     0.30628794     0.36305927
O      -2.03337798     1.85653695    -6.02995936     0.56408614    -0.33924872    -0.83613677
O      -5.85927134     6.92708969    -1.98417161     0.13025609    -1.82430605    -0.48999538
O      -5.84937947     6.87039173    -5.94912714    -0.39172535     0.08484343     0.38875317
O      -5.90521671     1.81870500    -9.80061292    -0.03704307     0.13360278     0.51713671
O      -5.88048133     1.86321175    -6.02681544     0.03933518     0.89367754    -0.28540828
O      -9.79192530     6.74749777   -10.06413280     0.04112549    -0.52134541     0.16186587
O      -9.78633444     6.77239786    -5.72229220    -0.63833099     0.24586068    -0.92486426
O      -3.83446531     2.47507173    -3.91458375    -1.44101592     0.63075813    -0.21139123
O      -4.02562066     2.30513980    -8.08155863    -0.12583113     1.61224974     1.20153808
O      -7.65830919     2.35760284    -4.03725957    -0.67516350     0.60820768     0.62679556
O      -7.92515447     2.42923408    -8.01197139     2.22177764     0.68947798     0.30516465
O      -3.95583295     6.33315179    -4.05345447     0.17281192     0.73621512     0.42797896
O      -3.95131267     6.36855359    -7.82583659     1.09546015    -0.28797235    -0.81586891
O      -7.73311290     6.38486996    -3.95364083    -1.99414432    -0.36212385     0.04766406
O      -7.84012691     6.46829892    -8.03804699    -0.13776925    -1.20954579     0.55913366
O      -3.80666747     4.51268013    -2.03488553    -0.23858679     0.10738009     1.40076196
O      -3.84335910     4.24148286    -5.99685108    -0.04002464     0.58321702     0.40194189
O      -7.83469078     4.34608453   -10.05576471     0.59332344     0.30227887     1.79099138
O      -7.73285705     4.39237849    -6.00023797    -0.59631526     0.00689483    -1.45879379
O      -7.94391097     8.68621745    -2.07751348    -0.35288350    -0.37024826     0.13229947
O      -7.94055740     8.58842598    -6.13685708    -0.39410235     0.95793725     0.31955731
O     -11.63524945     8.66967192    -6.09159568     0.90004104     0.16109374     0.17800460
O     -11.69114675     8.68495857   -10.12123211    -1.60724154    -0.19480957     0.57247546
O      -1.95833448     4.21161108    -4.02936226     0.36135331     2.48995220    -0.08014520
O      -1.84380024     3.93804710    -7.86697954    -0.93970467    -0.03149991    -0.92064778
O      -5.93363523     4.18625184    -4.08493999     1.04972210    -0.17256916     0.16343951
O      -5.82882737     4.57091923    -7.93738263    -0.24477875     0.90508775    -0.63849240
O      -1.99832647     0.43707502    -3.92724322     0.17626569    -1.77666882     0.04413268
O      -5.90301034     8.57816787    -8.03501147     0.51147919     0.51160726     0.42253078
O      -5.94705745     0.44726661    -4.05098200     0.76135182    -0.38591207     0.20139135
O      -9.91470067     8.19086787    -8.08498664     0.46905991     0.02040421    -0.45417626
