# total energy = -630.44371835 eV

CRYSTAL
PRIMVEC
        0.00279571     0.02951795    -7.98606283
       -7.83802570     0.01298533    -3.99532603
       -3.92160916     8.71933433     0.00634407
PRIMCOORD
56 1
Li     -4.01952438     2.39381845    -1.86685681     0.76166866    -0.30100060    -0.32178155
Li     -3.94191705     2.18364179    -5.87014885     0.23806598     0.02366986    -0.81636777
Li     -7.65684186     2.17455914    -9.87207152    -0.42596311     0.57795137    -0.63286185
Li     -7.78975900     2.30908864    -5.99461480     0.02982076    -0.04641440     0.34421701
Li     -3.90734065     6.50920922    -2.01281993     0.05102234     0.08587023     0.37255642
Li     -3.78120022     6.32213174    -5.81787825    -0.45918701     0.21381649    -0.32577671
Li     -7.79781507     6.43743544    -9.92449786     0.03054724     0.14727031     0.29999139
Li     -7.91556069     6.52713417    -5.81507234     0.34088845    -0.21709619    -0.08143999
Ti     -1.86532374     2.40542406    -4.09459306    -1.23778367    -0.68935344     0.12773866
Ti     -5.74484145     6.80791939    -7.77849090    -0.07235070    -1.86132202    -0.41919309
Ti     -7.67427681     4.46598892    -7.73818839     0.73323203    -0.06140642     1.19195929
Ti     -7.90935647     4.31791043    -3.64652224     1.12520129     0.12342518    -0.74962456
Ti     -3.88269233     4.35069559    -7.80817059    -0.40007147     0.55443182    -0.10323036
Ti     -4.10261535     4.44857180    -3.72741256     0.47222506    -0.92269491     0.87257728
Ti     -2.23486721     0.02514181    -2.23181896    -0.41770335    -1.62723820    -0.32427142
Ni     -5.78371130     2.18755174    -7.93154736    -1.22992924    -0.40552832    -0.11261910
Ni     -5.83303381     2.21379125    -4.07980495    -0.34832717    -1.17168200    -0.03586018
Ni     -9.69706022     6.41817715    -8.01561827    -2.05061475    -0.09264392     0.02364312
Ni     -9.77968065     6.43640213    -3.98007851    -0.11470178     0.64567898     0.12414074
Ni     -1.87346528     2.14120666    -8.07405616    -0.89789042     0.52173814     0.75883187
Ni     -5.92488726     6.63025893    -3.92250731    -0.17967810    -0.17962193    -0.12557935
Ni     -2.10827133     0.10880790    -6.01676549    -0.28235916    -1.13668588     1.24331171
Mo    -10.05139503     8.66503412   -10.31248719     2.51368480    -0.98089095     0.04870744
Mo     -5.96161737     0.06441102    -6.34853948     0.11888555     0.14030219    -0.66635907
O      -1.89722848     1.82939266    -2.02239449    -0.29285527     2.16297448     0.11368313
O      -1.97988301     1.93638777    -6.07758776     0.62667926     0.07289116     0.48508266
O      -5.84240543     6.74516774    -2.00693291    -0.23950840     1.25050219    -0.13256590
O      -6.05446320     6.85917855    -5.82245314     0.58742918     1.20182372    -0.54958449
O      -5.73363055     1.80571472    -9.81492917    -1.92065121    -0.38592499    -0.10999654
O      -5.82474438     1.97784673    -6.08075740    -0.95454847     0.92017517     0.60183717
O      -9.80098553     6.70310771   -10.07248100     0.45595334     0.58307753    -0.17940218
O      -9.72240458     6.92931152    -5.89993650    -1.03484559    -0.88191933     1.26845051
O      -3.81572304     2.47865744    -4.05254665    -0.00386256     0.46850492     0.54983287
O      -3.99360389     2.43406231    -7.88973339     1.04417285    -0.42612300    -0.55297689
O      -7.89802618     2.38846514    -4.00105072     1.32503486    -0.63435328     0.19177057
O      -7.78487329     2.42493427    -8.03690947     0.33946710     0.01532870     0.59600388
O      -4.00974642     6.32613393    -3.96726508     0.45352479    -0.14645736     0.19006605
O      -3.88083517     6.40656092    -7.97944398     0.83593947     0.48208108     0.07726425
O      -7.84213387     6.24598011    -3.83709704     0.08727264     0.47481125    -0.73392507
O      -7.88325200     6.34721115    -7.84658746     1.01643529     0.83878679    -0.59121299
O      -3.77988090     4.30189365    -1.92112173    -0.43117224     0.59747558    -1.50112773
O      -3.75734258     4.49296892    -6.06724730     0.24588253    -0.53861250     1.39188222
O      -7.67943731     4.38442918    -9.87857770     0.05001144    -0.35017418     0.22341306
O      -7.50285674     4.39259432    -5.96018931    -0.90754956    -0.40622979    -0.76161806
O      -7.97122990     8.70793917   -10.04804549     0.48407969    -0.64343437     0.15382295
O      -4.10584708     0.18925025    -6.10486628    -0.04085876    -0.47415346    -0.00544812
O      -7.79580501     0.14384798    -6.12510956     1.21009126    -0.49819972     0.17831327
O      -3.91947097     8.41878033    -6.03621774    -0.10487495     1.30699657     0.05428574
O      -9.71292858     4.39208555    -7.96423404    -0.01708350    -0.11271106     0.00475764
O      -9.69774929     4.19488891    -4.10829171    -1.06131894    -0.09728255     0.19521311
O      -5.86072959     3.93698955    -3.97351181    -0.38698260     2.24620116     0.31141956
O      -5.75693941     4.83808796    -7.88612823    -0.50014100    -0.60881451    -0.60081428
O      -2.12868274     0.40028854    -4.05201757     0.56679281     0.07556979    -0.91004017
O      -5.77519796     8.61242878    -7.90857365    -0.45946376     1.18949637    -0.50658558
O      -5.93630847     0.41019608    -4.08597959    -0.12794585    -0.77356022     0.28657613
O      -9.94536611     8.24442049    -8.11233070     0.81506116    -0.05845998    -0.38965984
