# total energy = -630.44332928 eV

CRYSTAL
PRIMVEC
        0.00279571     0.02951795    -7.98606283
       -7.83802570     0.01298533    -3.99532603
       -3.92160916     8.71933433     0.00634407
PRIMCOORD
56 1
Li     -3.84945769     2.31650981    -1.99574524    -0.95556362     0.00396694     0.41540719
Li     -3.82773208     2.52275353    -5.96728985    -0.42609352    -0.59209668    -0.07787215
Li     -7.66878608     2.39781755    -9.96410320    -0.08026098    -0.01519675    -0.02041129
Li     -7.89760237     2.17357634    -5.80106653     0.35497119     0.01856166    -0.07396870
Li     -3.98001308     6.41500755    -1.96683472    -0.13484253     0.09529437    -0.17040137
Li     -3.82706979     6.39538843    -5.89741582    -0.12802761     0.10560541     0.10619284
Li     -7.86155035     6.66441370    -9.82060444    -0.10741370    -0.32588730    -1.08674884
Li     -7.83361505     6.51806504    -5.90110551    -0.43393106    -0.09539226     0.03219976
Ti     -1.84470873     2.24573891    -3.95355065    -1.16220857    -0.18863489    -0.29837674
Ti     -5.90225331     6.94921756    -7.88640177     0.16406624    -1.68677776     0.14863600
Ti     -7.82844854     4.47686774    -7.85418231     0.61267824     0.09718272     2.38791770
Ti     -7.88209338     4.32412415    -3.76654240    -0.08472954     1.77138337    -0.64251838
Ti     -4.00229625     4.39105653    -7.79680702     0.45241720    -0.82568567     0.68209881
Ti     -3.92630436     4.38641870    -3.75777199    -1.52478313     0.11005276    -0.02754375
Ti     -5.90299187     8.65727896    -2.16529373     0.34862591     1.12533952    -1.07154145
Ni     -5.89561840     2.27038254    -7.97911213     0.90555202     0.75699243    -0.72583308
Ni     -5.77989278     2.27733452    -4.07859832    -1.40248283     0.37768961     0.90459308
Ni     -9.79339604     6.47784042    -7.93406596    -0.68183612     0.34487194     0.55263381
Ni     -9.89510420     6.42134404    -4.08354251     0.86721366     0.05323651     0.69497724
Ni     -1.96493533     2.15275393    -7.88617358    -0.29131202     0.26213165    -0.38270122
Ni     -5.90726377     6.45042799    -4.09295593    -0.56665287     0.01406475     0.55481663
Ni     -1.94596383     0.13569902    -5.96442528    -0.18078758    -1.73536637     0.69898791
Mo     -9.86624663     8.72380345   -10.24586856     1.38620302    -0.32213135    -0.53914657
Mo     -9.80901188     8.66299393    -6.30079395    -0.30907160    -0.15889822    -0.90473514
O      -2.08297386     1.92030297    -1.92327633     1.38423423    -0.65803293    -0.90195673
O      -1.95150307     1.93307001    -5.92016120     0.43394286     0.36354972    -0.34646904
O      -5.92694977     6.83368527    -1.89445719    -0.22101535    -1.02679088    -0.25843973
O      -5.97699313     6.92527573    -5.94330991     0.93515009     0.30603599    -0.25962379
O      -5.77724296     1.98451993    -9.99658459    -0.54290993     0.41603262    -0.24478520
O      -5.89857834     1.93974862    -5.94427257    -0.29221726    -0.15008505    -0.85244037
O      -9.72783636     6.78492475    -9.89292205    -1.31844633    -0.03805498    -0.20847594
O      -9.89897853     6.70834553    -5.99546621     0.20500689     0.80767817     0.03089058
O      -3.95637950     2.39820972    -4.04571513     1.94893763     0.51975472     0.32428821
O      -3.95412967     2.44327746    -7.98699192    -0.19269225    -0.51427536     0.43153290
O      -7.70237827     2.45034163    -3.87552132    -0.40193683    -1.53996012    -1.06211395
O      -7.80773227     2.42124893    -7.98134049    -0.83073300     0.06222842     0.34744629
O      -3.91279229     6.33663538    -3.89816815     0.01302056    -0.22127728    -0.89878317
O      -3.97340627     6.36230935    -8.06701605    -0.73695582    -0.09725147     1.07911458
O      -8.01302907     6.37177668    -4.01707614     0.54899294    -0.76667262     0.31824898
O      -7.84954510     6.46267719    -7.99036636     0.88960479    -0.39297059     0.49109617
O      -3.93531635     4.34293527    -1.99668018     0.20495299     0.10073866    -0.13792192
O      -3.91161658     4.36057814    -5.99051574     0.17526563     0.99315190    -0.67735527
O      -7.66374049     4.44389868   -10.01889091    -0.47243319     0.35742857     1.56645677
O      -7.82245845     4.59925891    -6.03262284     0.15500209    -0.74624700    -1.84313525
O      -8.06550364     8.62127608    -9.91975617     2.76993895     0.25480429     0.01627057
O      -8.07674535     8.60303948    -6.05737717     0.08567969     0.14187245    -0.34216351
O      -3.96645928     8.62490588    -1.99139511     0.58256118     0.60651308    -0.16595793
O     -11.62771527     8.61856221   -10.10745997    -0.96256983     0.14382106     0.14652174
O      -1.93621694     4.21871712    -3.90444462    -0.10109998    -0.95673561    -0.82370731
O      -1.97430121     4.02331418    -7.91680277    -0.11473699     0.32986291    -0.43339113
O      -5.92390800     4.26544589    -4.14602997     1.27663842     0.30508377     0.20847322
O      -5.88788964     4.15053472    -8.04870595    -0.08451940     0.70623651     0.29029826
O      -1.89773149     0.22937192    -4.06692883    -0.43201677     0.42105104     1.17448928
O      -5.84727151     8.69391381    -7.96483145    -0.32089174     1.96992441    -0.02271736
O      -5.68113565     0.35247133    -4.04949401    -1.13080806     0.08380350    -0.25841650
O      -5.95859176     0.47786313    -8.15296067    -0.15319101    -0.70726808     2.07867397
