# total energy = -630.00725671 eV

CRYSTAL
PRIMVEC
        0.00279571     0.02951795    -7.98606283
       -7.83802570     0.01298533    -3.99532603
       -3.92160916     8.71933433     0.00634407
PRIMCOORD
56 1
Li     -3.88448214     2.09349944    -1.90316622    -0.83984072     0.79900070    -0.03829516
Li     -3.92201871     2.37436136    -6.10085840    -0.38391281    -0.07310460     0.79117055
Li     -7.87463195     2.45314823    -9.95840846    -0.27983570     0.08760664    -0.42681514
Li     -7.79146124     1.81730229    -6.09516616    -0.18658623     0.57813240     0.91355295
Li     -3.90277522     6.48106435    -1.86612027     0.30319492    -0.01029737    -0.47708011
Li     -3.95625845     6.58483767    -5.93732774     0.73713629    -0.34308777     0.18452135
Li     -7.85316979     6.33069927   -10.11759826     0.12050895    -0.01402261     0.46398095
Li     -7.79350663     6.59879478    -5.93658328     0.24725932     0.00182730     0.43085181
Ti     -2.14248231     1.95944472    -3.95118826     0.56300964     0.07644703    -0.67730584
Ti     -5.93608894     6.34264993    -7.87772671     1.05455219     0.69125373    -0.75807621
Ti     -8.05555079     4.29493586    -7.80241720     1.19304689    -0.12857152     1.02053457
Ti     -7.73500772     4.35288397    -3.95711822    -0.32041727    -0.12902242     0.82488513
Ti     -3.75933722     4.38509257    -7.75942571     1.63551938     0.43119905     0.30255679
Ti     -3.92796966     4.42057699    -3.82514736    -0.77286269     0.45340075     0.52946917
Ti     -6.21860198     8.61580051    -1.91527961     0.89633788    -0.42929286    -0.18072583
Ni     -5.96303492     2.45655989    -8.11871436     1.77672339     1.16237795     0.95625680
Ni     -6.00595814     2.13729629    -3.99728005     2.04508526    -0.32926720    -0.51213272
Ni     -9.75172915     6.55777906    -7.82526923    -0.36705787     0.78948923     0.12867060
Ni     -9.72477339     6.60659243    -3.96348633     0.54459515    -0.69867868    -0.42515228
Ni     -2.11678777     1.86977137    -7.96911998     0.79527911     1.09316274    -0.10182058
Ni     -5.76925209     6.71473435    -3.97930507    -0.59553909    -0.57953926    -0.57570790
Ni     -1.96048139     0.10902576    -6.11144584    -0.48414830    -1.24449912     0.94847030
Mo     -6.05069582     0.11185571   -10.14436543     1.15557414     0.41335658    -1.75259183
Mo     -5.78438454     0.03441831    -6.35492556     2.05052728     0.06977663     0.71889758
O      -2.02807247     1.78939851    -1.96111671     0.74041479     0.87836243     0.15484667
O      -2.11023220     1.94143959    -6.06515238     1.13655522    -0.91384892     0.02463587
O      -5.77181839     6.74819499    -2.08040584    -0.80990108     0.46712438     0.92372073
O      -5.75551557     6.89182774    -6.04999138    -0.86405245     0.29840489     0.03544660
O      -5.95911069     2.08315116   -10.10565481     0.09295040    -0.24937608     0.15406628
O      -5.77286583     2.00072097    -5.91793214    -1.02916747    -0.87910357     0.88644320
O      -9.71780232     7.02435743    -9.65222423    -0.68816459    -0.09960030    -0.00650228
O      -9.63923688     6.83624801    -5.88572422    -0.89152478    -0.35501995    -1.19767990
O      -3.98371897     2.36804923    -3.95346471    -0.10496283    -0.25829214     0.03359303
O      -4.02866571     2.52368604    -7.94045829     0.37086301    -0.68651750    -1.23268944
O      -7.79579447     2.35686848    -4.06842848    -1.15052948     0.60531356    -0.06026122
O      -7.83308825     2.36403742    -7.85208791    -0.68615044     0.68262269    -1.26857140
O      -3.85557656     6.45366419    -3.91633419     1.32283670    -0.70716332    -0.33674170
O      -3.90528199     6.33726236    -7.96770052    -0.71045669    -0.02142652     0.39879281
O      -7.71625513     6.42495078    -4.01484914    -0.54699773     0.11549728     0.13405189
O      -7.83522854     6.30518196    -8.03104845    -0.07848861     0.22210346     0.36748341
O      -3.92803481     4.36033511    -2.05664694     0.65998284    -0.07735520    -0.26232047
O      -3.67577613     4.32493640    -5.98828132    -0.90855807     0.44547747    -0.26693591
O      -7.58265689     4.48088826   -10.13909573    -0.64187410    -0.77369845     0.23271920
O      -7.93468208     4.55302733    -6.04043514     0.24605935    -0.13957096    -0.80416439
O      -4.04074363     0.16596426    -2.13933358    -0.44432064    -0.47116799     0.55070911
O      -7.85064377     8.67134534    -5.89690258     0.33558776     0.30407216    -0.84359355
O     -11.43504423     8.66345336    -6.17061604    -1.20826021    -0.00852722     0.77383803
O      -7.78936738     0.17638590   -10.11408226    -1.74041039    -0.23814030     0.64963075
O      -1.97752846     3.97299905    -4.18599373    -0.62152558     0.16582930     0.51903312
O      -9.66371881     4.72975480    -3.88899504    -0.61157303     0.21805302    -0.66652656
O      -5.78288621     4.83255677    -4.20493120    -0.15460579    -0.29664837     0.01554307
O      -5.86418079     4.39125998    -8.07836536    -0.33109892     0.89625882     0.73913062
O      -1.79767547     0.11043678    -3.86119867    -0.50759671    -0.32350384    -0.55220686
O      -5.85054478     8.44294803    -8.06795289    -0.48512291    -0.14407218    -0.44654002
O      -9.78448192     8.42689521    -3.96069566    -0.22744036     0.60921258     0.18914305
O      -5.70367300     0.69752221    -8.07815903    -0.50035068    -1.36511612    -1.19533271
