# total energy = -630.57800105 eV

CRYSTAL
PRIMVEC
        0.00279571     0.02951795    -7.98606283
       -7.83802570     0.01298533    -3.99532603
       -3.92160916     8.71933433     0.00634407
PRIMCOORD
56 1
Li     -3.94500668     2.26049636    -1.97076867     0.33081673    -0.26113752     0.42796967
Li     -3.97628510     2.26002372    -5.97360745     0.29032663    -0.28604490     0.18679719
Li     -7.71210435     2.47560174    -9.97606472    -0.71310448    -0.03273621    -0.31684630
Li     -7.82774117     1.98308757    -5.96442820     0.41924947     0.36109115     0.41894822
Li     -3.96685313     6.57846308    -1.91307068     0.64489023    -0.27495885    -0.49520948
Li     -3.89826212     6.37874531    -5.74780253     0.01083039     0.04973587    -0.74107044
Li     -8.08362095     6.48714761    -9.81928285     1.04429261    -0.42883623    -0.58416995
Li     -7.94627356     6.68983144    -5.99848651     1.42363843    -0.28943583     0.39812621
Ti     -1.89604122     2.15174440    -3.92882310    -0.75300035     0.44726097    -1.06087244
Ti     -5.77603066     6.69892269    -7.95467903    -0.35520286     0.40683044     0.64684076
Ti     -7.93565377     4.39527030    -7.79071095     1.16619451     1.03483907     0.47172563
Ti     -7.81885967     4.50827979    -3.82072152    -1.09451213    -1.54406057     1.20409368
Ti     -3.91366892     4.31050820    -7.74516193     0.65078250     0.91816026    -1.03779428
Ti     -4.05719685     4.32582231    -3.72258075     0.40281318    -0.31646017    -0.95040668
Ti     -6.06900093     8.56792790    -2.14049447    -0.91577676     1.06247609     0.41244824
Ni     -5.86433699     2.43145046    -8.16551741     0.12778510    -0.21324878     1.24815410
Ni     -5.81077377     2.10486003    -4.02406536    -0.80357859    -0.38671575     0.15877165
Ni     -9.75888033     6.54786543    -7.78243583    -0.37040383    -0.05926388    -1.36461257
Ni     -9.85760879     6.43037096    -3.91069987     1.79090780     0.61712267    -0.75976210
Ni     -1.83876311     2.21707209    -7.92391028    -0.52044465    -0.29780438     0.14776194
Ni     -5.91469991     6.63860131    -4.01461858     0.63356538    -0.11679046    -0.16035820
Ni     -1.97408563     0.03245632    -6.02051040    -0.04348330    -1.17207157    -0.10365805
Mo     -5.99481301     0.04861331   -10.20939006    -1.35388606    -0.26648854    -0.99920605
Mo     -9.80382164     8.71107358    -6.42618587     1.08267106     0.61114954     0.91121976
O      -1.88655331     1.75458420    -1.97706239    -0.13802887     1.09039071    -0.32984775
O      -1.98384129     1.81299499    -5.94501616     0.43938717     0.73415441    -0.36945782
O      -5.92335058     6.73068731    -1.99911859     0.60002295    -0.72746548     0.38931810
O      -5.88661277     6.86012818    -6.01788148     0.26313467     0.08069439    -0.02599001
O      -5.88016774     2.08533371   -10.12683422     0.33520733    -0.61818064    -0.46169047
O      -5.85763186     1.86888438    -5.88482316    -0.11930930     0.58627032     0.30507288
O      -9.81990175     6.87824788    -9.67130690    -0.46625791     0.87964842     0.13136138
O      -9.70392561     6.81882811    -5.94456136    -1.19243511     0.00944468    -0.33739397
O      -3.83733087     2.24405981    -3.89816201    -0.85412328     1.00164357    -0.58885364
O      -3.90871577     2.46425045    -7.86925624     0.56913988    -0.89689437    -1.32285551
O      -7.82534891     2.45486175    -4.02317642     0.62997180     0.32784206     0.12613866
O      -7.79028021     2.44919625    -7.99943856    -0.22094651    -0.40826587     0.18038883
O      -3.83447921     6.23473135    -3.95262090     0.36434974     0.90265474     0.97769597
O      -3.80468644     6.39415090    -7.98666070    -3.15988675    -0.65561623     0.26025944
O      -7.80070267     6.38686341    -3.87283967    -1.39163577     1.00502602    -0.58397633
O      -7.74086926     6.41776384    -7.99421179    -0.81871069    -0.58030403     0.62820077
O      -3.83544651     4.35424264    -2.00858513    -0.19107932    -0.26804023     0.58705772
O      -3.90429672     4.38582520    -6.02522553    -0.08935339     0.13558846     1.76044974
O      -8.03259152     4.42772439    -9.99373936     0.54824067     0.02655599    -0.80794248
O      -7.96503193     4.48639240    -6.02894260    -0.02729285    -0.02744389    -0.38282551
O      -4.03170180     0.07805728    -2.22796660    -0.52996417    -0.53813254     0.73359273
O      -4.02723501     0.09901455    -6.15232392    -0.07213793    -0.94814452     0.32158328
O     -11.58501734     8.73861045    -6.06731584    -0.23581506    -0.73201570    -0.63266544
O      -7.80697956     0.10283120    -9.84584837     1.18895156    -0.10671698    -0.76093083
O      -1.98537983     4.04319561    -4.16300917    -0.38264706    -0.50780968     0.90971275
O      -9.79874736     4.57611861    -4.10188696    -0.25161637    -0.19534172     0.32909247
O      -5.92003481     4.72401758    -4.01221514     0.65299083    -0.12928914    -0.23038855
O      -5.91201087     4.30249418    -8.04923651     0.29448961     0.63436458    -0.07725254
O      -5.86621843     8.67478881    -3.97010253     0.13358064     0.49726804    -0.49796026
O      -5.82101318     8.52829241    -8.13212696     0.02928700    -0.30990093     0.61765294
O     -10.10287766     8.34128180    -4.00998007     1.19780756     0.54321381     1.13476360
O      -5.79822663     0.62324654    -8.17544839    -0.14273008    -0.57326217    -0.00713671
