# total energy = -630.41948500 eV

CRYSTAL
PRIMVEC
        0.00279571     0.02951795    -7.98606283
       -7.83802570     0.01298533    -3.99532603
       -3.92160916     8.71933433     0.00634407
PRIMCOORD
56 1
Li     -3.91276721     2.15486758    -1.86958710    -0.50288508    -0.25051179     0.09832985
Li     -3.92697426     2.46673616    -5.89247625    -0.11572090    -0.36540282    -0.65983777
Li     -7.84045740     2.07481801    -9.99947348     0.01533033     0.39263919     0.08735061
Li     -7.84634042     2.11944832    -5.83758772     0.39482890     0.48411687    -0.51893753
Li     -3.89221858     6.63813292    -1.91007611    -0.06958676    -0.22616701    -0.43539465
Li     -4.05104389     6.53867825    -5.92124006     0.77141686    -0.19500828     0.25978468
Li     -7.90424432     6.74104718   -10.14200051     0.50029077    -0.12047212     0.84657836
Li     -7.86142856     6.55539245    -5.89400075     0.00020231    -0.42221252    -0.15440056
Ti     -2.06910183     2.36877461    -3.90373397     1.80888340    -0.50785963    -1.18050174
Ti     -5.89296562     6.69480626    -7.91274244    -0.49718170     0.85910693    -0.31762048
Ti     -7.77362044     4.39223946    -7.85111562     0.78167061    -0.11687037     0.02799631
Ti     -7.93529002     4.32943247    -3.74875788     1.07349237    -0.19730840    -0.59074465
Ti     -3.86965711     4.46461400    -7.81688723     0.33967763    -1.03210864     0.94706217
Ti     -4.11451307     4.37200498    -3.60754223     0.27890576     1.73663369    -1.32030514
Ti     -1.66829458     0.03277779    -2.22000140     0.16089357    -0.70398318     1.23455412
Ni     -5.87874619     2.11767380    -7.97158868    -0.44890150    -0.15574152     0.42730378
Ni     -5.90173671     2.28215932    -4.10465520    -0.89228610    -0.10013605     1.02442846
Ni     -9.83574423     6.33113796    -8.03445085     0.03622658     0.68216546     0.34633157
Ni     -9.85750788     6.59012155    -4.00286616     0.41283836     0.16675861     0.33414223
Ni     -2.07895469     2.09571536    -7.97681555     1.28409987     0.21062486     0.25385202
Ni     -5.94502083     6.63863281    -3.96753218     0.32668706    -0.08777896    -0.73855590
Ni     -1.92667368     0.11415264    -5.97719541     0.16537461    -0.25100282     0.06184561
Mo     -9.83952785     8.66867060   -10.27736332    -0.34223588     1.67686484    -0.32602055
Mo     -5.71456731     0.05451335    -6.27659932     0.52671797     0.33051924    -0.34563693
O      -1.82886867     1.91864098    -1.96134655    -1.90039278     0.58026494    -0.49924940
O      -1.94925861     1.96126561    -5.84131078    -0.66227313    -0.34692846    -0.98455183
O      -5.91675543     6.88648790    -2.10039958    -0.25422173    -0.51447927     0.59408669
O      -5.80300842     7.00011496    -5.96029430    -1.46025011    -0.55956982    -0.16202855
O      -5.85343300     1.95230137    -9.81721513    -1.17063124    -0.81511051    -0.38934585
O      -5.94330175     1.98548271    -6.05872587     0.43912561    -0.64689376    -0.17059453
O      -9.80382404     6.75433730   -10.11041714    -0.53950957    -0.19904651     0.60434807
O      -9.86276407     6.80737530    -5.80800990     0.96374154     0.68112163    -0.79764309
O      -4.01191597     2.37625012    -3.95395422     1.13953518     0.58558690     0.47036864
O      -4.05671776     2.42605219    -7.98969429     0.73080070     0.01003798     0.17505083
O      -7.86939375     2.33929552    -4.00665756     0.53586821     0.23377055     0.02498374
O      -7.93061915     2.37876423    -7.97875553     0.53926961     0.55007159     0.25517636
O      -3.95253001     6.31798820    -3.95066009    -0.00320020    -0.83037488    -0.10183917
O      -3.93277700     6.41483267    -7.97083883     0.42231743     0.30501704     0.18247627
O      -7.91080821     6.32812656    -3.99287112     0.38645768    -0.09585408    -0.06967275
O      -7.89534120     6.39345230    -7.99491008     0.41738643    -0.30198016    -0.21498194
O      -4.02533709     4.44544341    -1.88657353     0.11195277    -0.51403806     0.38150789
O      -4.18496787     4.28668022    -6.08664838     1.16295914     0.70229933     0.30175810
O      -7.94549321     4.19345534   -10.02089528     0.35514150     0.60370851     1.49208777
O      -7.76579563     4.41257331    -6.12917971    -0.08380215    -0.17399423     0.94903648
O      -4.16255613     0.13792284    -9.84462114     0.00468214    -0.94299048    -0.98796727
O      -3.91680599     0.13639924    -6.04729897    -0.69060307    -0.39505539    -0.33591795
O     -11.59623021     8.71035620    -6.09543491    -0.37783920     0.37851052    -0.13606325
O      -3.92249256     8.71153297    -6.14332929     1.81755357     0.38452437     0.77824459
O      -1.99547254     4.35613752    -3.97039735    -0.86106305    -0.80018768    -0.11323261
O      -1.89099420     4.11853132    -0.13670619    -2.69723264    -0.30444113     0.12383674
O      -5.90868798     4.21706848    -3.97569545    -1.08922560    -0.37184525    -0.25433835
O      -5.81692358     4.80505716    -7.94187002    -1.28172654    -0.02051612    -0.93083935
O      -1.95394337     0.25895394    -4.01254916    -0.36561855     0.62958543     0.02714441
O      -5.68263839     8.64255937    -8.10739535    -1.15916024    -0.04250850     0.15843071
O      -5.85119065     0.21475697    -4.12148536     0.04423624     0.82040309     0.58856968
O      -9.75278881     8.21051161    -7.98709229    -0.57983380    -0.69036638    -0.44934106
