# total energy = -630.94195625 eV

CRYSTAL
PRIMVEC
        0.00285542     0.02004370    -7.95977623
       -7.82940539     0.00763210    -3.98158109
       -3.91729101     8.74642787     0.01461334
PRIMCOORD
56 1
Li     -3.98573593     2.33634100    -1.83922641     0.11775431     0.06555092    -0.15633898
Li     -4.06233804     2.18504852    -5.96213199     0.48129084     0.08573027     0.40369765
Li     -7.75643809     2.21568478    -9.77542215    -0.47882762    -0.00121300    -0.49163822
Li     -7.90668385     2.03432510    -5.76236243     0.32287909    -0.00125540    -0.46919121
Li     -3.74603535     6.41099550    -1.86184900    -0.84188448     0.05672767    -0.49101388
Li     -3.73257081     6.59570803    -5.82184540    -0.56829287    -0.12399173    -0.60243005
Li     -7.81296022     6.45862076    -9.93422647    -0.06107911     0.01061697     0.34139319
Li     -7.75397820     6.60959109    -5.95222592    -0.74837681    -0.45124638     0.16869433
Ti     -2.00250457     2.31439707    -3.95353093    -0.57871268    -0.74595772    -0.62289589
Ti     -5.82401566     6.73275937    -8.01103577    -0.45766549    -0.15929450     0.51094407
Ti     -7.74712920     4.30636552    -7.62874672    -0.64208347     0.98790320    -0.75169454
Ti     -7.79036311     4.30185103    -3.64188147    -1.31212011     0.69410053    -1.23097927
Ti     -3.98069254     4.39730450    -7.68368160     1.65183015    -1.05763125     0.88296428
Ti     -4.05859728     4.43508861    -3.83028614     0.07343635     0.18432188     0.97764922
Ti     -5.95044770     8.74893505    -2.14646863    -0.01117733    -0.59447121    -0.50379057
Ni     -5.93695206     2.30639654    -7.91104971     1.24141027     0.59947619    -0.37751921
Ni     -5.95466437     2.26892693    -4.02233278     0.61890953    -0.65596974    -0.00124105
Ni     -9.80426920     6.51161399    -7.87652504     0.70316756    -0.08321576    -0.62066595
Ni     -9.67875253     6.29283017    -4.01001795    -0.53971289    -0.25113129     0.19315527
Ni     -1.93456202     2.29725236    -7.90387461    -1.22330181     0.08682436     0.14466614
Ni     -5.96330442     6.58581033    -4.04738458     1.52238511     0.57688814     0.26533626
Ni     -2.09187836     0.04030950    -5.97918643     0.52228422    -0.93122584    -0.06771298
Mo     -5.86009132     0.06575238   -10.27575875     1.16830656    -0.18520280     0.58973429
Mo     -9.72383331     8.68482609    -6.36417798    -2.27465236    -0.13078353     1.26726294
O      -2.04125520     1.92413655    -2.04556395     0.60066912     0.30700616     0.78498705
O      -1.99932162     1.88560675    -6.01559215     0.08321292    -0.34848571     0.83486867
O      -5.82854268     6.77425222    -1.99409834    -0.02531313    -0.13834016    -0.30395352
O      -5.96515768     6.89180260    -5.96201513     0.87518711     0.39963640     0.41314212
O      -5.88054297     2.02352064    -9.84550932     0.17759020     0.06497511    -0.83703000
O      -5.95980273     2.04312498    -6.02225097     0.53118754    -0.35789409     0.66290440
O      -9.69243045     6.90063242    -9.92294493     0.41886198     0.39611709     0.43768628
O      -9.79540217     6.80523721    -6.00460158     0.64702779    -0.52536861     0.23156829
O      -4.05476289     2.42386241    -3.89461114     1.27902359     0.26026053    -0.85837407
O      -3.88095605     2.36514876    -7.80526709    -0.09287429     1.36721953    -0.93034574
O      -7.88991590     2.39906434    -3.89676639     0.37791288    -0.59534729    -0.24364596
O      -7.87264412     2.35253427    -7.79720939    -0.36083400    -0.17506774    -0.88391238
O      -3.84564164     6.40690274    -3.99689239    -0.42483350    -0.31763181     0.52571280
O      -3.81546461     6.34728310    -7.87930126    -1.04711152     0.33335032    -0.45434293
O      -7.80289503     6.31302697    -3.92502402    -0.60484922    -0.43922967    -0.21804052
O      -7.78672880     6.27830209    -7.91684772     0.08164556     0.39345749    -0.44163419
O      -4.07600565     4.48509182    -2.04525219     0.80508431    -0.18833408    -0.05966100
O      -3.74225796     4.51233327    -5.92576975    -0.57251095    -0.24260588    -0.02239284
O      -7.86787548     4.30742993    -9.87359498    -0.10574914     0.24034337     0.97120131
O      -8.10041244     4.43816477    -5.96522008     0.61282139     0.04677786     1.46788558
O      -3.85694437     0.03537123    -2.09480936    -1.42062418    -0.30693090     0.26651223
O      -7.98806540     8.67352616    -6.02112370     0.88634918     0.42009704     0.23942682
O     -11.54267992     8.74533702    -5.89816606    -0.34133225     0.01848982    -0.57909028
O     -11.49322530     8.72564755   -10.02682884    -1.30845190     0.14591959     0.09867420
O      -1.93290165     4.13425319    -3.99777651    -0.96799639     0.20743511    -0.05558833
O      -2.01105319     4.31119521    -0.07736496     0.56817000    -0.01624116     0.26502602
O      -5.95513092     4.17319741    -3.99693426     0.62723197     0.14939962    -0.74679299
O      -5.85235413     4.38007173    -7.84746584    -0.29806838    -0.18734065    -0.10127496
O      -2.00355762     0.16799268    -4.02437125     0.48373677     0.44407954    -0.36786299
O      -5.99298984     8.52110641    -8.05833267     0.62344573     0.47422619     1.03783703
O      -5.74833320     0.28027233    -4.08945009    -0.34018674     0.66683788     0.10423416
O      -5.72449259     0.53341657    -8.07843457    -0.50996349    -1.04288146    -0.62744805
