# total energy = -630.99826870 eV

CRYSTAL
PRIMVEC
        0.00285542     0.02004370    -7.95977623
       -7.82940539     0.00763210    -3.98158109
       -3.91729101     8.74642787     0.01461334
PRIMCOORD
56 1
Li     -3.97020809     2.23616130    -2.00351258     0.30101311     0.16822847     0.14994429
Li     -3.97265716     2.34081556    -6.11745618    -0.08684483    -0.27369863     0.62669105
Li     -7.67908024     2.27264082   -10.08081314    -0.41438926     0.19125544     0.66761132
Li     -7.88498510     2.23742018    -5.85758883     0.55138602    -0.08776118    -0.26399762
Li     -3.79448947     6.45040474    -1.89057869    -0.44992868     0.15188851    -0.30515755
Li     -4.04605266     6.38269848    -5.91224446     0.34804370     0.01755538     0.31606932
Li     -7.77995317     6.50875487    -9.91696418    -0.43207416    -0.03758944     0.16257828
Li     -7.91739423     6.30499768    -5.83325250     0.35933282     0.43581946    -0.21611373
Ti     -1.92388816     2.21022322    -4.15379882     0.12097893     0.07041709     0.94713810
Ti     -5.83918179     6.79469137    -7.95272298    -0.28593708    -0.21655752     0.52540813
Ti     -7.78100992     4.36196834    -7.75152031     0.32752829     0.15886077    -0.62768278
Ti     -7.91908470     4.43338917    -3.74348530     1.14682332    -1.92861213     0.12585708
Ti     -3.75936863     4.38417903    -7.82719493    -1.69162370    -0.62538904    -0.76886500
Ti     -4.15625554     4.44515588    -3.80834930     0.79260031    -0.17041037     0.02031544
Ti     -6.01990709     8.70671023    -2.11556459    -0.49413361     1.38490543     1.01763657
Ni     -5.81301114     2.35526658    -7.97976121    -0.24413825    -0.46446969    -0.50605247
Ni     -5.85370605     2.15781103    -4.01061734    -0.24546165    -0.66826201    -0.20376579
Ni     -9.82235763     6.69860583    -7.85414823     0.57842803    -0.43196081    -0.01284145
Ni     -9.79414224     6.57858105    -3.79081730    -0.16743531     1.29581204    -1.09206152
Ni     -1.88301880     2.04297058    -7.90765284    -0.05874248    -0.03207654     0.02574353
Ni     -5.84675354     6.78909865    -3.90789023    -0.36181905    -1.33148983    -1.22607389
Ni     -5.89130238     8.63887527    -5.93705886    -0.33934884     1.18980692     0.31664208
Mo     -9.90047754     8.70743272   -10.15388991     1.26049584    -0.13391389    -1.00397775
Mo     -9.76625142     8.69538564    -6.29230088    -0.67911370     0.31039585    -0.46108968
O      -1.93214883     1.81878704    -1.81830996    -0.17314647     0.58057483    -0.87385090
O      -1.86369851     1.79845855    -5.96057771    -0.52226272    -0.34107207    -1.08225359
O      -5.85290562     6.86941545    -1.97907798     0.29254754    -1.93527346     0.62639450
O      -5.95463134     6.86025054    -5.85250730     0.37894805    -0.47539796    -0.52817282
O      -5.83825361     1.92154695   -10.03637942     0.13130589     0.14886447    -0.83044207
O      -5.85980743     1.89167223    -5.88351124    -0.06783891     0.46526669     0.15693080
O      -9.77830267     6.82230342    -9.68752018    -0.26355241     0.12943996    -0.29601804
O      -9.79217124     6.79175946    -5.99234308     0.37031232    -0.38385028     0.22594121
O      -3.97350294     2.50122415    -4.03588194     0.24493437    -0.96966402     0.05229878
O      -3.81393543     2.42778236    -8.00879549     0.07027159     0.63221146     0.08376949
O      -7.75663017     2.35921018    -3.97529128    -0.54792580     0.81276061    -0.01682371
O      -7.75382190     2.32453490    -7.98305152    -1.24489414     0.90195908     0.19395669
O      -3.81875036     6.43814173    -3.92065160    -0.11848589    -0.63291751    -0.30495672
O      -3.93214591     6.52502140    -7.88824687    -0.07351849    -1.27719414     0.07056410
O      -7.91042844     6.29410915    -3.92663528    -0.20703607     2.09665234     0.46151254
O      -7.74156283     6.38983926    -7.94687517    -0.76867694    -0.89586880     0.27296939
O      -4.12872673     4.39083437    -2.05812035     0.54530681     0.15558340     0.75473874
O      -4.05753319     4.32547290    -6.10746326     0.07311595     0.52938243     0.94684723
O      -7.98940687     4.30247652    -9.94537476     0.23409044     0.03294767     0.03720397
O      -7.73534663     4.36046595    -5.99951737    -0.82538540    -0.33734714     0.07983936
O      -7.93806636     8.59257553    -2.10699960     0.37054896     0.49452704     0.06733050
O      -7.94110830     8.70360446    -5.97779510     0.35876408    -0.04633438    -0.24901195
O     -11.61676144     8.67706321    -6.12711124     0.75746955     0.11506934     0.23668101
O     -11.65101861     8.68951312   -10.01144362    -1.07180213    -0.04109799     0.33584967
O      -2.06149640     3.99286250    -3.97439530     1.14722928     0.81207525    -0.12903222
O      -9.79431628     4.73591291    -3.98050848     0.13250142    -0.22327071    -0.50232687
O      -5.98091805     4.82498892    -4.09878115     0.33681275     0.19299406     0.51674735
O      -5.90852714     4.25193861    -8.16271641     0.23417762     0.24923245     0.67746744
O      -5.80784429     8.74789419    -3.91148216    -0.22365916     0.91320308    -1.40002369
O      -5.87970426     8.57841671    -7.99746622    -0.04525751     0.03083648     0.09183885
O      -9.86034713     8.60211035    -4.09374708     0.25999265    -0.17096335     1.72387702
O      -5.78831344     0.53517524    -8.10885199     0.05030072    -0.41930929     0.34561948
