# total energy = -630.86162720 eV

CRYSTAL
PRIMVEC
        0.00279571     0.02951795    -7.98606283
       -7.83802570     0.01298533    -3.99532603
       -3.92160916     8.71933433     0.00634407
PRIMCOORD
56 1
Li     -3.82045601     2.26826733    -1.68412156    -0.04565638    -0.25856659    -1.02688101
Li     -3.91486382     1.86373344    -6.12180652    -0.39618830     0.12583807     0.68230853
Li     -7.70646666     2.38950270    -9.99572272    -0.02017692     0.12789249    -0.27233122
Li     -7.74845554     2.20999593    -5.93469947    -0.21389381    -0.06057075     0.07992619
Li     -3.83442951     6.47631240    -2.02123230    -0.61739614    -0.09065076     0.49632570
Li     -4.11036177     6.35149491    -5.85890980     0.38740131     0.32949403     0.13207214
Li     -7.87301874     6.43382312    -9.88721147    -0.16357904     0.09096722    -0.08051389
Li     -7.83982925     6.64791479    -5.77816785    -0.20800143    -0.07861557    -0.28801598
Ti     -1.98295956     2.19509496    -4.18530015    -0.49954093    -0.10417149     0.90438473
Ti     -5.84820208     6.63732592    -7.99151614    -0.54759010     1.40468328     0.18584750
Ti     -7.89680509     4.43110754    -7.73242301    -0.43158546     0.34088745     0.75716993
Ti     -7.76777785     4.42511410    -3.81440350    -0.37308971    -1.23423063     0.82072214
Ti     -3.88237229     4.25479526    -7.61235161     0.01978210     0.65531283    -0.32600525
Ti     -3.97500542     4.37673296    -3.71960148     0.69837163    -0.07346235     0.00864211
Ti     -2.07111884     0.04700613    -2.04122388    -0.62549611     0.42030293    -0.27344786
Ni     -5.89978310     2.42777133    -8.09008511     0.30325193    -2.07859065     0.76985095
Ni     -5.71572329     2.18955465    -4.07941596    -1.81020487     0.40340848     0.09002132
Ni     -9.85380855     6.58439499    -7.90291446    -0.02933987    -0.15811999    -0.35106087
Ni     -9.83742378     6.37166409    -4.04297718     0.07753578     0.24900380     0.69641532
Ni     -1.87581513     2.21391263    -7.88020052     0.42377010     0.00325581    -1.34310730
Ni     -5.89869534     6.50841549    -3.91298629     0.49195434     0.76930131    -0.03101714
Ni     -2.02795189     0.04851422    -5.97727284     0.03398933    -0.69899578     0.25328825
Mo     -9.92372755     8.75359373   -10.30659028    -0.51237283     0.30713973     1.90433364
Mo     -9.82787802     8.66513798    -6.42518016     0.16522640     0.58263376    -0.57651343
O      -1.90508251     1.93351043    -1.82519154     0.32783818     0.06811249    -0.28951484
O      -2.04831550     1.88559882    -6.06781961     1.28519790     0.27384519     0.57775630
O      -5.88122969     6.79021481    -1.89468389     0.29625581    -0.66987160    -0.46885634
O      -5.99161850     6.97780495    -5.84014182     0.66293146    -1.19443583    -0.36891607
O      -5.77215586     2.02462924   -10.03475385    -0.20942439    -0.11342442    -0.84055733
O      -5.76851934     1.97919446    -6.03630113    -1.11548097    -0.51669853     0.28252778
O      -9.99076424     6.91339461    -9.96265318     1.67048589    -0.50015111     0.76332179
O      -9.83548331     6.78283261    -5.99307698     0.53003107    -0.32218777     0.04124721
O      -3.90531139     2.28704958    -4.08495017     1.25369600     0.71145607     0.45848640
O      -3.86205084     2.37455561    -7.85014929     0.01786991     0.36595536    -0.89927911
O      -7.68429909     2.45479179    -4.02624425    -0.63586681    -0.25760995     0.18195124
O      -7.86676175     2.44908835    -7.97483253    -0.11581635     0.14542310    -0.34228643
O      -3.91300933     6.39921512    -3.91634745    -0.22392996    -0.89471969    -0.20216458
O      -4.00694851     6.28227196    -7.89232550     0.14688875     0.14987569    -0.26880467
O      -7.78377623     6.33987772    -3.79287113    -0.51284344     0.77816012    -1.19160075
O      -7.88004024     6.43379042    -7.95546240     0.26592760    -0.75841051    -0.22171346
O      -3.75310504     4.43898758    -1.97938297    -0.53932411    -0.35034919     0.24016990
O      -3.97251439     4.41385059    -5.89397003     0.05496831     0.32065005     0.34329559
O      -7.81367716     4.40045130   -10.02085837    -0.32250076    -0.00495968     0.52569780
O      -8.08303363     4.59926101    -5.97702284     0.42188379    -0.40458007    -0.36741699
O      -3.87263165     0.06672739    -2.01315388    -1.13403903    -0.46983777    -0.06617034
O      -8.01684977     8.66903819    -6.10869599     0.19550669    -0.05778496     0.23592761
O     -11.62226082     8.65899592    -6.10866361     0.22458142     0.48062415     0.18833513
O      -7.75737701     0.05235739   -10.07409325     0.49183417     0.94475485    -0.27226705
O      -2.03777334     4.14363982    -4.11482948     0.92235682    -0.55752529    -0.01597128
O      -9.82532820     4.56251939   -11.87114807     0.45110768    -0.47922460    -0.27394932
O      -5.83568212     4.25853172    -3.97399525    -0.39252289     0.12818825    -0.45118169
O      -5.94590526     4.30360617    -7.86075488     0.36333670     0.75105733    -0.46227931
O      -1.95085832     0.18605180    -4.00059243     0.17906484     1.19631705    -0.01783218
O      -5.78479525     8.55099249    -7.97969525    -0.14234291    -1.20526886     0.33728190
O      -9.74181134     8.72300694    -4.06890458     0.02839521     0.28707437    -1.07684122
O      -5.83064876     0.43509219    -8.21659052    -0.29975489     1.21222510     0.88112601
