# total energy = -630.89803292 eV

CRYSTAL
PRIMVEC
        0.00279571     0.02951795    -7.98606283
       -7.83802570     0.01298533    -3.99532603
       -3.92160916     8.71933433     0.00634407
PRIMCOORD
56 1
Li     -4.00999297     2.37264637    -1.92836426     0.25918643    -0.60776814     0.27994239
Li     -3.77089020     2.15621461    -6.01225756    -0.49197260    -0.31511932    -0.09957844
Li     -7.95264717     2.28494590    -9.97154161     0.79990192     0.28030252     0.23618297
Li     -7.74624539     2.45554023    -5.89612085     0.01057969    -0.30679312    -0.63662070
Li     -3.94730250     6.38366391    -2.00023533     0.31308924    -0.13818119     0.22583389
Li     -3.85430274     6.25419963    -5.85678229    -0.25824596     0.42453697    -0.26729737
Li     -7.98881419     6.37288174   -10.04863103     0.25752284     0.24497016     0.36381813
Li     -7.74396046     6.74361270    -5.96789814    -0.17760332    -0.13086232     0.55185999
Ti     -2.01153996     2.28311117    -3.86015969     1.55792629    -0.77189549    -0.21987335
Ti     -5.90247608     6.73845817    -8.01255795     1.18575956     0.09056675     1.21348272
Ti     -7.88276174     4.54835270    -7.80434839     0.35092742    -2.91269756    -1.15574193
Ti     -7.87598236     4.35326488    -3.79910736    -0.00818790    -0.33459141     1.07323937
Ti     -3.87883011     4.33335231    -7.72830259    -0.19500842     0.34157457     0.34548883
Ti     -4.01007319     4.34012380    -3.85683274    -0.81880405     0.74358775     1.59402555
Ti     -6.06398467     8.63427604    -2.19054280    -0.55440868     0.93233736     0.92194510
Ni     -5.88969822     2.34824109    -7.97135814    -0.14162248     1.98991633     0.20239499
Ni     -5.81815255     2.22543164    -4.06310562    -0.99750536    -0.22693195     0.62242325
Ni     -9.73993789     6.56977834    -7.88592315    -1.43797132     0.32318584    -0.26336968
Ni     -9.78413283     6.53382868    -4.04483189     0.02698735     0.60213894     0.24898097
Ni     -1.83487168     2.07962218    -7.94945191    -0.94419205    -0.30228140    -0.23384048
Ni     -5.87946843     6.57349935    -3.96975399     0.13469193    -0.82909902    -0.21949148
Ni     -5.87865096     8.67648853    -5.91778543    -0.31319362    -0.52269897    -0.58859576
Mo     -6.05899583     0.06658495   -10.30150342     0.87474079     0.76589596     0.97265507
Mo     -9.85456327     8.67285707    -6.35722491     0.18007841     1.99700523     0.70349591
O      -1.84616726     1.90080961    -1.94293867    -0.86523555    -0.35186000    -0.30110091
O      -1.88511070     1.74470391    -6.01802327    -0.37143919     1.36628931     0.02718630
O      -5.84657407     6.72870689    -1.95868594    -0.31095915     0.01253944    -0.94789979
O      -5.86189388     6.78654124    -5.95880041    -0.12633999     0.50228248     0.46413727
O      -5.85897030     1.99501972   -10.05490875    -0.45948463    -0.51098658    -0.47988568
O      -5.78786605     1.90050377    -5.88773667    -0.66945476     0.42585830    -0.13235196
O      -9.85933863     6.95477237    -9.79132853     0.53042081    -0.31355602     0.36786409
O      -9.64369879     6.86798069    -5.95825133    -0.91545901    -1.82547684    -0.76406345
O      -3.94997427     2.34920525    -4.04315436     0.98755272    -0.06527583     0.39590379
O      -3.91432979     2.47773796    -7.96628143     0.59926856    -0.95961612     0.04662470
O      -7.82534215     2.33376082    -4.06039593     0.54711827     0.89225564     0.74943654
O      -7.79436892     2.48941079    -7.86657159    -0.81082094    -0.08838778    -0.94563289
O      -3.81676715     6.29936396    -3.96263288     0.00156447     0.10415523     0.52717783
O      -3.99363330     6.33796509    -7.91860077     0.38611689    -0.07203071    -0.56084014
O      -7.83810660     6.30305046    -3.95723779     0.36804433     0.60442654    -0.30986636
O      -7.87273148     6.41780326    -8.06057468     0.56020475     0.88219762     0.28642513
O      -3.81939198     4.17340013    -2.02735357    -0.06671605     1.34504539    -1.08583043
O      -3.66107549     4.34557233    -5.92228022    -0.08328594    -0.18659848    -0.57163315
O      -7.77803228     4.32629986    -9.96998743    -0.41284398     0.02572945    -0.80929007
O      -7.85646568     4.40262039    -6.11371950     0.10211251     0.28677174     2.64976245
O      -7.91551820     8.71370866    -2.08678738    -0.00242202    -0.02564903     0.27005330
O      -4.01855261     0.07681400    -5.99470380    -0.45329749    -0.69300073    -0.62333894
O     -11.70238927     8.68016558    -6.10109661     1.57423845    -0.53652018     0.22204737
O     -11.72584228     8.75222195   -10.03239034     0.03640791     0.21315012    -0.11414214
O      -1.98005655     4.12422399    -3.94229825     0.41882092     0.23039541    -0.47288013
O      -9.73394705     4.71195581    -4.05848945    -0.62141166    -0.38903315    -0.04169603
O      -5.90471820     4.47199324    -3.98893482     0.17002336    -0.02409364    -0.60475490
O      -5.82369174     4.29214722    -7.80481845    -0.04281345     0.34908807    -0.76320719
O      -1.99263761     0.23151732    -3.98904541     0.26755001    -0.26550374    -0.40744807
O      -5.90198629     8.52078701    -7.96056894     0.04917124     0.08021554    -0.49015990
O      -9.80239530     8.50723895    -4.06848213    -0.36103589    -0.30954271    -0.19846041
O      -5.99650217     0.61065259    -8.05207954     0.43288679    -1.83371000    -1.32598780
