# total energy = -630.88690024 eV

CRYSTAL
PRIMVEC
        0.00279571     0.02951795    -7.98606283
       -7.83802570     0.01298533    -3.99532603
       -3.92160916     8.71933433     0.00634407
PRIMCOORD
56 1
Li     -3.84274301     1.96198522    -1.96480880    -0.47693725     0.68841798     0.34618247
Li     -3.93043600     1.97901649    -6.01717636     0.15196423     0.70187898     0.08208451
Li     -7.72486868     2.27809797    -9.98473442    -0.56648759     0.18739775    -0.04906979
Li     -7.82508282     2.30154653    -5.90806297    -0.13764481     0.01547184     0.16102780
Li     -3.88869503     6.29433881    -1.78520942     0.06230858     0.12442101    -0.68267199
Li     -4.00312216     6.37199057    -5.73475548     0.37292356    -0.11595419    -0.74053936
Li     -7.87343472     6.63989148    -9.98259362     0.24756892    -0.28350494     0.23778411
Li     -7.94001194     6.66866881    -5.97953865     0.86499221    -0.18836793     0.59240421
Ti     -1.94214801     2.13009101    -4.01079886    -1.25076455     0.39051916    -0.48387129
Ti     -5.87978924     6.86674981    -7.90804722    -0.48328343    -1.78360753     0.66877272
Ti     -7.85588194     4.39330759    -7.74089492     0.30389834     0.48369103     0.70391826
Ti     -7.89891514     4.46392288    -3.69402920     0.15563693    -0.24886232    -0.25686733
Ti     -3.93243099     4.34107685    -7.65401744     0.06033733    -1.03717588     0.33676871
Ti     -3.96458706     4.31688074    -3.70709201    -0.46235608    -0.55113319     0.53761510
Ti     -6.00180259     8.60732223    -2.13853098    -0.25754022     1.69593873    -0.87508270
Ni     -5.89557892     2.27592435    -8.02634428     0.11304661     2.97189623    -0.02092633
Ni     -5.83479383     2.08155253    -4.03469222    -0.32122813     0.46433508    -0.08242320
Ni     -9.76418677     6.53954256    -7.83834739     0.62056208     0.28336260    -0.65025604
Ni     -9.82977389     6.53023141    -3.97254388     0.45081257    -0.28047877    -0.24577696
Ni     -1.86284298     2.08820609    -8.06973982    -0.27783118     0.52423350     1.47162259
Ni     -5.88561823     6.52700545    -3.95456690     0.02670089     1.47738206    -0.32205423
Ni     -1.94077968     0.04255695    -6.11145717    -0.02527973    -0.09932431     1.49337794
Mo     -5.98568976     0.04032421   -10.30580278     0.57485187    -0.00068222    -0.33702037
Mo     -5.96634916     0.03037697    -6.42801847    -0.01422292     0.05882362     1.58465054
O      -1.94695021     1.83954945    -1.98092488     0.49972593     0.46187550    -0.40128377
O      -1.83119694     1.89232531    -6.05692862    -0.55805317    -0.59534103    -0.39970707
O      -5.80819918     6.79074523    -1.98361380    -0.30451004    -1.33833476     0.25499362
O      -5.88609565     6.88120452    -5.96264729    -0.04593448     0.35584932    -0.09920876
O      -5.88107349     2.01723192   -10.12324312     0.62462681    -0.52353999     0.30447385
O      -5.95948871     1.96773864    -5.96708918     0.41133860    -0.12996478     0.47999768
O      -9.69601096     6.87914291    -9.82458810    -1.14794334     0.68112611     0.69228107
O      -9.75988237     6.92293235    -5.93080033    -0.84695686    -1.37739635    -0.78699802
O      -3.91447951     2.23394832    -3.99880932     0.12409319     0.70959477     0.04004330
O      -3.81983005     2.41885656    -7.91063778    -0.10139947    -0.34590633    -0.72899442
O      -7.70378345     2.46370681    -3.93853167    -0.88046120     0.57476000    -0.50607967
O      -7.94421143     2.40842158    -7.98538448     2.32104913     0.20510629     0.14599187
O      -3.71558549     6.23144502    -3.93588999    -0.54118551     0.69339834     0.51121921
O      -4.04090862     6.26863365    -7.87548672     0.59397630     1.26270742    -0.04997329
O      -7.93346553     6.49466338    -3.99486025     0.69887853    -1.08414524     0.45194629
O      -7.77921801     6.44965507    -7.91304237    -0.44821225    -0.37423358    -0.26962771
O      -3.83448006     4.38425582    -1.93748630    -0.05296701    -0.44707859    -0.69834300
O      -3.79257484     4.30009551    -5.88938044    -0.06709273     0.35299784    -0.34754582
O      -7.76117100     4.59424198    -9.90906885    -0.46524841    -0.20491784    -0.43884627
O      -7.92400160     4.57800589    -5.98096387     0.31700013    -0.46096651    -0.73897690
O      -3.99130859     0.08401992    -2.08528992    -0.21361222    -0.71969887     0.44714937
O      -4.12176966     0.14087533    -6.12997077    -0.22070146    -0.82047736    -0.53512426
O     -11.70299829     8.70493225    -5.96581089     1.14102531     0.10797123    -0.38957343
O      -7.77510730     0.05608174   -10.16026386     0.25498994    -0.19899185    -0.24969939
O      -1.95992724     4.03046029    -3.97029177    -0.02721781    -0.05562583    -0.16364152
O      -9.79546869     4.64708126    -4.08379268     0.20846760    -0.06080897     0.72464943
O      -5.84454487     4.71768761    -3.95747578    -0.83378396    -0.65800479    -0.34200083
O      -5.87379877     4.31344876    -7.89537893    -0.12892195    -1.14312947    -0.21768200
O      -1.92366750     0.03293093    -3.99360877     0.05270750     0.23532106    -0.52662734
O      -5.93109682     8.64001042    -8.12564272     0.23728714     0.35609128     0.51100985
O      -9.66782286     8.46331302    -4.08879172    -0.88762080     0.08370779     0.59285789
O      -6.12248432     0.54723202    -8.16815956     0.52278770    -1.25913281    -0.75172499
