# total energy = -631.05146500 eV

CRYSTAL
PRIMVEC
        0.00285542     0.02004370    -7.95977623
       -7.82940539     0.00763210    -3.98158109
       -3.91729101     8.74642787     0.01461334
PRIMCOORD
56 1
Li     -3.72220501     2.21930978    -1.95438997    -0.86589580     0.07694515    -0.04437282
Li     -3.94269859     2.33416361    -5.99349356    -0.05652052    -0.16339528     0.23719717
Li     -7.81744008     2.13510758    -9.90756648     0.31512751     0.29054678     0.01703509
Li     -7.72349754     1.91086076    -5.94744686    -0.74351268     0.52934611     0.24974595
Li     -3.88908755     6.30834951    -1.85724068    -0.56754713     0.18731693    -0.00058928
Li     -3.95749729     6.54315883    -5.89244712     0.27271392    -0.11060080     0.39234044
Li     -7.90301128     6.57406841    -9.96486849     0.23023437    -0.04976162     0.44521148
Li     -7.87951820     6.59135730    -5.83768514    -0.28587235    -0.41345336     0.36592593
Ti     -1.96361502     2.26551838    -4.10531798     0.03130442     0.70944183     1.56819771
Ti     -5.96923821     6.86200784    -7.75571665     1.10872928    -0.65289976    -1.77029369
Ti     -7.81289250     4.38568183    -7.61499750     0.02360559    -0.98361021    -0.33597335
Ti     -7.81489551     4.34621699    -3.66695634    -1.11430391     0.81712370     0.19213998
Ti     -3.84130263     4.28218404    -7.70775330    -0.96169602     0.79139630    -0.81036369
Ti     -4.03781135     4.41627660    -3.75818484     0.60785410    -1.16688059     0.26506543
Ti     -5.83892952     8.71218954    -2.26490842     0.08952356     0.22597506    -0.27087469
Ni     -5.85411853     2.27751545    -7.95168403    -0.04023596    -0.45001730    -1.14071941
Ni     -5.93200686     2.32036327    -4.13947041     0.76572035    -0.51142173     0.89816570
Ni     -9.85460138     6.45415331    -7.86926010    -0.07607356     0.08051188    -0.15722811
Ni     -9.87730196     6.41870632    -3.81046650     0.45821474    -0.35563346    -0.50666411
Ni     -1.88273150     2.21558454    -7.96220057    -1.01146885     0.05821023    -0.22789842
Ni     -5.95080684     6.48409219    -3.95083052     0.12079829     0.57372237     0.63283292
Ni     -1.93411062     0.01464144    -6.02146577    -0.34641528     1.15052837     0.97654848
Mo     -5.87575683     0.11278299   -10.26641633     0.75289406    -0.86843201    -0.36933025
Mo     -9.77014606     8.64318540    -6.33107217    -2.00737490    -0.13803973     0.14607573
O      -1.90129613     1.89137925    -1.97544876     0.18660741    -0.16829006    -0.13879529
O      -2.04301754     1.91561451    -5.93965666     0.71110787    -0.90578440    -2.03063099
O      -5.84153141     6.84894401    -1.97978753    -0.69233775    -0.64293696     0.12590312
O      -5.92498475     6.93120967    -5.81830886     0.34756070    -0.42710003    -0.83721261
O      -5.79429730     1.97966409   -10.03421777    -0.56038487     1.60267214     0.65982948
O      -5.84025972     1.98053685    -6.03232979    -0.03560995     0.03706698    -0.00313980
O      -9.82462217     6.92410021    -9.83185551     0.24049785    -0.08360476    -0.09301076
O      -9.91092398     6.80205201    -5.96203591     0.37812924    -0.41621589     0.43922090
O      -3.89650978     2.45994993    -3.93595218    -0.38097998    -0.56387420    -0.90229895
O      -3.83044954     2.37485474    -8.01161027    -0.29342983     0.23994082     0.72356719
O      -7.88261269     2.42276057    -3.89519979     0.44792486    -0.33443307    -0.63090469
O      -7.83827186     2.39007996    -7.82330470     0.17970428     0.03143967    -0.91325703
O      -3.98683931     6.28098387    -3.86432581     0.68984518     1.57495857    -0.93052623
O      -4.03557376     6.29711192    -7.84394041    -0.42687664     0.26905975    -0.06176752
O      -7.92664255     6.40407285    -3.91755244    -0.09249340    -0.62048581     0.35829717
O      -7.80912697     6.36591485    -7.88855412    -0.22672864     0.13714618     0.04215552
O      -3.75226825     4.39921609    -2.02487273    -0.20081249    -0.21296754     0.53845949
O      -3.78379362     4.41193437    -5.95757452    -0.42940068    -0.34142296     0.36523384
O      -7.83558555     4.34311015    -9.86842232     0.02857482     0.46993670    -0.51665150
O      -7.74628642     4.48668418    -5.87059170    -0.31449372     0.20734199    -0.47980446
O      -3.98900151     0.11773757    -2.07975337     0.17295458    -1.04775816    -0.11475417
O      -8.06621045     8.58858940    -6.10786409     1.69421388     0.34249249     0.55492249
O      -7.82893257     0.02711641    -6.06077882     0.80986620    -0.28224616    -0.20194239
O      -7.64008701     0.12358807    -9.87449832    -0.55056002    -0.37902064    -0.60315713
O      -1.91135299     4.14362692    -4.15506889    -0.15410616     0.61813269     0.86048761
O      -9.79078762     4.44956624    -4.04345053     0.42162640    -0.02512125     0.27387214
O      -5.92839387     4.35555212    -3.99256971     0.55016370    -0.53486260    -0.13886498
O      -5.93086866     4.12643860    -8.04244234     1.26021263     0.40813595     0.49904494
O      -1.96604431     0.24531189    -4.15385365    -0.18664515    -0.16808318     0.90767486
O      -5.89020810     8.61592100    -8.02875494     0.02392121     0.23361056     1.21797606
O      -5.93074135     0.41976988    -4.12493174    -0.05641345    -0.52373412    -0.20618469
O      -5.82447368     0.35192413    -8.10614914    -0.20345503     1.36548740     0.54607341
