# total energy = -631.29012643 eV

CRYSTAL
PRIMVEC
        0.00279571     0.02951795    -7.98606283
       -7.83802570     0.01298533    -3.99532603
       -3.92160916     8.71933433     0.00634407
PRIMCOORD
56 1
Li     -3.91343212     2.35826023    -1.95337921    -0.53863821     0.11627584     0.07423643
Li     -3.87081542     2.13372142    -6.06881947    -0.06566362     0.08212303     0.50949116
Li     -7.74622834     2.25018808    -9.94954168    -0.27948991     0.41699226    -0.36454918
Li     -7.79539302     2.10647540    -5.96134278    -0.27153819    -0.09136189     0.63625520
Li     -3.86536914     6.39622287    -1.93967312    -0.17959643     0.19694676     0.14039284
Li     -3.86193047     6.42456891    -5.84621454    -0.18042768     0.20726498    -0.13939091
Li     -7.81806327     6.47073791    -9.90260115    -0.10353357    -0.13739966    -0.51211568
Li     -7.84683281     6.88088966    -6.03155817    -0.14728065    -0.71844919     0.62992056
Ti     -1.88706689     2.36641186    -3.96619459    -1.86080546    -0.42642210    -1.02234052
Ti     -5.85012326     6.72341915    -7.95587809     0.52103350     0.54011978    -0.08668780
Ti     -7.66048433     4.37664365    -7.69601742    -0.79195075     1.15513065     0.70530201
Ti     -7.81091119     4.35041271    -3.86252444    -0.78857957     0.20646113     1.01899345
Ti     -3.89250444     4.38005514    -7.61102808     0.84370982     0.20547906    -0.39607153
Ti     -4.08634197     4.38770349    -3.74901000     1.21599243    -0.03284661     0.84296752
Ti     -2.18605924     0.05838523    -2.10389157    -0.76468313    -1.19113758    -0.76643268
Ni     -5.79890163     2.12861903    -7.91673390    -0.58921746     0.04720110    -0.78525412
Ni     -5.83689436     2.25487266    -4.09645652    -0.17701513     0.11461217     0.54469720
Ni     -9.83925786     6.38259731    -7.92578995     0.97175226    -0.86719321    -0.70458322
Ni     -9.81939870     6.52219308    -3.95121507     0.96492011     0.12743975     0.00013993
Ni     -1.93774152     2.17515177    -7.98400596     0.22049147     0.52831439     0.37200930
Ni     -5.80616661     6.52786536    -4.09003747    -1.18824480     0.69549024     0.57735040
Ni     -2.05537461     0.12058274    -5.97950896     0.69914575    -0.76826611     0.21314639
Mo     -9.94452177     8.67477955   -10.35935968     1.60991250    -0.17339065     0.95838290
Mo     -5.90534785     0.05114872    -6.34639351    -1.12615315    -0.12045918    -0.43016794
O      -2.05928932     1.92406925    -1.92781461     0.93475544     1.06221030    -0.75779658
O      -1.94132409     1.95684531    -6.02650016     0.21443532    -0.30715720     0.48519571
O      -5.81798704     6.89792418    -1.91384256     0.06094049    -0.76429984    -0.21726874
O      -5.93434259     6.94440172    -5.94718541     0.18852663     0.51089396     0.00940613
O      -5.85832700     1.89403011    -9.85462052     0.02836838    -0.75860854     0.32804536
O      -5.85447303     2.03835293    -6.04140707    -0.17436575    -0.46431560    -0.29817973
O      -9.76037216     6.75427427   -10.04499207    -0.45360666    -0.17648467    -0.65578923
O      -9.80829056     6.85924179    -5.82799908     0.14130875     0.03293541    -0.03804693
O      -3.85367621     2.47128732    -4.04873715    -0.14284111    -0.45993588     0.57465217
O      -3.96005277     2.46427074    -8.03387704    -0.11345302    -0.23638349     0.94022845
O      -7.73795225     2.36271450    -3.99686527    -0.36926007     0.01604734    -0.61147168
O      -7.84302377     2.43682839    -7.88537339     1.19123995    -0.54664870    -0.28108231
O      -3.92129327     6.34192159    -3.94011726     0.14496000    -0.16777741    -0.02536460
O      -3.91175266     6.47951736    -7.84885996     0.40053047    -1.29256307    -0.29339097
O      -7.72617635     6.31485579    -3.96454271    -0.46578553     0.13393318     0.01855043
O      -7.76969250     6.31201012    -7.98226830    -0.75811995     0.54852184     0.01192731
O      -4.00406705     4.42138505    -1.96572557     0.21958817    -0.01396289    -0.34190858
O      -3.94789369     4.38674890    -5.83039776     0.19862566     0.36474657    -1.96777254
O      -7.96206898     4.30130746   -10.07445590     0.58174353     0.41896544     0.61466646
O      -8.01754820     4.56201152    -5.96469478     0.47127386    -0.82231303    -1.00206276
O      -7.95023139     8.63195483   -10.04875542     0.72307204     0.47220647    -0.03600031
O      -4.08208988     0.14469466    -6.04694744    -0.08835706    -0.26998115    -0.07923619
O      -7.72948450     0.03035840    -5.96555568     1.03959787     0.78048142    -0.99942707
O     -11.65618690     8.64044465   -10.15135323    -1.01595789     0.36243398     0.89235309
O      -9.76252218     4.31020212    -8.06681744    -0.14811042     0.14585101     0.65846018
O      -1.96829271     4.14483025    -8.00403548    -0.94013447    -0.21768692    -0.00017063
O      -5.88869388     4.22816966    -4.07628011    -0.70287566    -0.53236749    -0.17155942
O      -5.83557964     4.68817714    -7.94080162     0.67665598     0.07827370     0.11311043
O      -2.01122104     0.32039185    -4.01949633     0.39343750     0.53691024     0.29690472
O      -5.81655784     8.72129125    -7.98095484    -0.56717969    -0.32977505     0.18290667
O      -5.95124930     0.35566322    -4.11445490     0.73870899     0.44632405    -0.36765891
O      -9.74142099     8.16146736    -8.13519563    -0.51931570     1.11811708     1.15593563
