# total energy = -630.86052198 eV

CRYSTAL
PRIMVEC
        0.00285542     0.02004370    -7.95977623
       -7.82940539     0.00763210    -3.98158109
       -3.91729101     8.74642787     0.01461334
PRIMCOORD
56 1
Li     -3.96146620     2.08055906    -1.79277135     0.03986829     0.20603661    -0.52249613
Li     -3.87970650     2.09105223    -6.00716413    -0.15434826     0.11110190     0.15270635
Li     -7.66852809     2.22967034    -9.89716647    -0.51986492    -0.13318994    -0.14640105
Li     -7.86332385     2.16442028    -5.78667392    -0.19955938     0.05560238    -0.60543777
Li     -3.96539126     6.42555940    -1.84808111     0.53169534    -0.43318642    -0.38595844
Li     -3.81513395     6.31403777    -5.93893776    -0.17892812     0.31702393     0.81072288
Li     -7.82405883     6.80297037    -9.90041038     0.08567085    -1.15686157     0.09242823
Li     -7.88169421     6.46906818    -5.83466973     0.18562570    -0.09928395     0.01779722
Ti     -1.99380230     2.32059555    -3.96587344    -0.39362586    -1.35771436    -0.30122448
Ti     -5.86107310     6.77137180    -7.76018627    -0.74366430    -0.50029936    -0.42297352
Ti     -7.79376645     4.38992065    -7.71729936     0.15635032     0.55314044    -0.63599510
Ti     -7.80085960     4.33080512    -3.71817365    -0.09859090     1.70447478     0.30557978
Ti     -3.94304144     4.37398165    -7.71204299     0.23401227    -0.34632041     0.11559404
Ti     -4.01942823     4.37827941    -3.81099229    -0.09784637     0.35581757     2.24755701
Ti     -5.85303603     8.62978199    -2.22440213     0.42571364     2.53485438    -0.61995622
Ni     -5.96344162     2.25669931    -7.93597258     0.72633906     0.40811681    -1.42230710
Ni     -5.88451597     2.16894894    -4.05960693     0.66534045     2.26951374     0.32640985
Ni     -9.76465981     6.50041118    -7.95230042     0.31908548     0.44431242     1.06567007
Ni     -9.79554292     6.60141631    -3.95541784     0.84485274    -0.77541230     0.60419110
Ni     -1.99661164     2.33022586    -7.94613950     0.59421403    -0.22314813     0.11825076
Ni     -5.89178571     6.54539072    -3.83832733     0.57181315     0.48756962    -0.71748667
Ni     -5.78873527     8.70766060    -5.95111648     0.09793759     1.45782409     0.47996596
Mo     -9.82416834     8.64861179   -10.27320437     0.75450498     0.32328584     0.77393150
Mo     -9.79307879     8.73139370    -6.32191617    -1.22849132    -0.64293488    -1.41286039
O      -2.06089481     2.00024135    -2.07339976     0.32653597    -1.12126423     1.00017988
O      -1.85935667     1.83433629    -5.98908809    -0.50737370    -0.06226746    -0.52035007
O      -5.80219705     6.81961241    -1.88517607    -0.44635365    -0.65619532    -0.52017083
O      -5.76593762     6.90109088    -5.85452328    -0.53530332    -1.00767894     0.49397048
O      -5.79150639     1.95785764    -9.99107369    -0.68898825     0.08281748    -0.39158838
O      -5.94087060     1.97556962    -6.03862038     0.17556870    -0.03431601     0.75567055
O      -9.72410424     6.74436585    -9.86363510    -0.54841778     0.57694490    -0.45540156
O      -9.82005382     6.84914065    -5.89082220    -0.52725421     0.25162824    -0.09531181
O      -3.94211825     2.39349097    -4.04679019     0.03936131    -0.26960716    -0.19663565
O      -3.99309765     2.43510128    -7.88822112     0.34043007     0.14441002    -0.02998243
O      -7.80000394     2.44237711    -3.92275428    -0.68599384    -1.04586277    -0.04576820
O      -7.88457937     2.45693606    -7.92936008     0.85117097    -0.39549090    -0.37237332
O      -3.77439793     6.35608966    -3.90934438    -1.14263232    -0.56558025    -0.31853173
O      -3.92464903     6.41083497    -7.82652473     0.29116913    -0.35613719    -0.54892468
O      -7.78720908     6.43987319    -3.92897460    -0.50435502    -0.48325894    -0.36239853
O      -7.82718730     6.39695644    -7.84915951     0.19463988     0.39057951    -0.04410158
O      -4.01775670     4.38827417    -1.99822394     0.33691823     0.23230678    -0.58810832
O      -3.99768916     4.38677538    -5.91169763     0.50421492     0.26711279    -1.35204114
O      -7.80280890     4.64815996    -9.95258532    -0.11482676    -0.65918465     0.40934909
O      -7.78833477     4.44026687    -5.99025630    -0.23154870     0.34781027     1.14005171
O      -7.94321405     8.68262384    -9.95715089     0.37939731     0.24019864    -0.03532994
O      -8.06187682     8.73412198    -6.20360200     0.79510306     0.25046912     0.28202577
O      -7.86498047     0.18257348    -6.18257875     0.09170211    -1.15464025     0.82339661
O     -11.56114431     8.74647597    -9.96197082    -0.67596519    -0.33752184    -0.45697921
O      -1.95854597     4.12821771    -3.97638424    -0.43348281     1.56478648    -0.36503928
O      -9.74358725     4.31214809    -4.07666979    -1.26921152    -0.23186713     0.39984019
O      -5.87678198     4.09922179    -4.00209371    -0.46014060     0.12381609    -0.29918212
O      -5.91056855     4.50520594    -7.96731819     1.16116992    -0.30899830     0.00146041
O      -2.05748572     0.26007355    -4.06114432     0.09027570    -0.61815902     0.06894626
O      -5.87082261     8.58753970    -7.88649054     0.20751347     0.05033967     0.01925615
O      -5.86417451     0.36726547    -4.12880773    -0.21278276    -0.77898358    -0.42460770
O      -6.05358221     0.42425960    -8.19653321     0.78280000    -0.12548421     2.23291293
