# total energy = -630.62275115 eV

CRYSTAL
PRIMVEC
        0.00279571     0.02951795    -7.98606283
       -7.83802570     0.01298533    -3.99532603
       -3.92160916     8.71933433     0.00634407
PRIMCOORD
56 1
Li     -3.93109139     2.45724189    -1.95697453    -0.24148337    -0.67577893     0.25621808
Li     -4.02244617     2.33565460    -6.02360643     0.11038144    -0.32709006    -0.01002108
Li     -7.80494714     2.28405894    -9.92088153     0.30816868    -0.24927068    -0.14671036
Li     -7.97345885     2.36913387    -5.91275286     0.33278803    -0.00374365    -0.12645144
Li     -4.00060600     6.33347377    -1.94614388     0.18798219     0.41758017     0.05968114
Li     -3.87631260     6.41572580    -5.99892352     0.04046829    -0.04668702     0.76683792
Li     -7.88207958     6.45284933    -9.83155051     0.25516543     0.18804888    -0.28667804
Li     -8.03551398     6.34624935    -5.90799822     0.43923860    -0.02542012     0.24665604
Ti     -2.00669420     2.39131904    -4.01803925     0.05662229     0.87619806    -0.26884097
Ti     -5.89270539     6.74516420    -7.77557448     0.02165857    -0.21876247    -0.24364487
Ti     -7.62046352     4.38310528    -7.80390448     0.25049676     0.27656060     0.84691349
Ti     -7.86085763     4.38585377    -3.67264173    -0.76975166    -0.92724488    -1.68523354
Ti     -3.88065915     4.36579428    -7.83053417     0.10193883    -0.13506131    -0.09496076
Ti     -4.11024655     4.38589730    -3.83530811    -0.19452769     0.44365114    -2.00290965
Ti     -1.90798304     0.04214838    -2.35133588     0.64947166    -0.87057606     0.90604054
Ni     -5.83957174     2.04624890    -7.96706883    -0.32307125     0.22150328     0.95602841
Ni     -5.93048245     2.28013937    -4.07353673    -0.73335849    -0.96805909     0.09031080
Ni     -9.74417869     6.32984710    -8.04026101    -1.79550309    -0.84948702     0.11512868
Ni     -9.82739823     6.56937874    -3.83648952     0.40518652     0.26419668    -2.43509010
Ni     -2.00874956     2.24629571    -7.86648134     0.44244306    -0.48512584    -1.08948805
Ni     -5.85350357     6.60907526    -3.95440011    -0.79508178    -0.20413690     0.26553154
Ni     -1.83239953     0.09973333    -6.00795673    -0.69687291    -0.40167664     0.60526902
Mo     -9.79167051     8.74577705   -10.26326186     0.68161204    -0.07471678    -1.64272710
Mo     -9.81752040     8.70757590    -6.33398222     0.63765093     0.05338184     1.24709576
O      -2.06694385     1.93022763    -1.96526971     0.26697135    -0.32049116    -0.87573474
O      -1.88747132     1.96061481    -5.98144897    -0.06330503    -0.18201455    -0.69859420
O      -5.98417020     6.82552020    -2.01071882     0.00477095     0.84828992    -0.73108831
O      -5.92648610     6.89174130    -5.87095341     0.50608163     0.44026923     0.26784687
O      -5.78819724     1.96998540    -9.79828401    -1.03586843     0.15867354    -0.45805165
O      -5.95616446     1.89549442    -5.98205380    -0.62786062     0.71129632    -1.51409807
O      -9.75921598     6.70362116   -10.06429925    -0.39085810     0.63553589     1.28753321
O      -9.83263736     6.88916378    -5.74937925    -0.51412861    -0.38942527     0.50905639
O      -3.91803929     2.43091569    -4.10721534    -0.24640247     0.34325256     0.60150144
O      -3.96655492     2.32097571    -7.97225900    -0.22652256     0.95967748     0.13774239
O      -7.92623865     2.42591237    -4.08058199     0.47239328    -0.14938878     1.02253270
O      -7.86352099     2.44741184    -7.90313519     0.23855182    -0.44740893    -0.39081058
O      -3.89097970     6.25878662    -3.97792739    -0.40825309     0.66001215    -0.44570815
O      -3.84046839     6.36211140    -7.87981308    -0.25517127     0.14572927    -0.38315540
O      -7.94982398     6.24907138    -3.97393621     0.63588139     1.00157173     0.45391074
O      -7.90579706     6.37491630    -7.86964262     1.08771227    -0.50062600    -0.41066660
O      -4.13506769     4.33500434    -2.13694912     0.47413845    -0.08560358     2.88212124
O      -3.96779125     4.34557700    -6.08137157    -0.14396066    -0.12831370     0.50097173
O      -7.96629986     4.21693120    -9.92954781     0.06599963     0.68768779     1.37523781
O      -7.73571781     4.36797368    -6.02521945    -0.19821346     0.11897556    -1.26546164
O      -4.13103831     0.11307823    -9.84411793     1.86358192    -0.83955153    -0.46032999
O      -4.16285004     0.14313311    -6.15161496     0.57683177    -0.30924684    -0.13349071
O      -3.97146319     8.63120580    -2.07134685    -1.10704893     0.80474936    -0.66207736
O      -7.61779982     0.12826960   -10.00156999    -1.52636139    -0.28125732     0.64261171
O      -2.02838494     4.38470877    -4.01405448     0.74576949    -0.69521377     0.13802248
O      -2.00591627     4.05177796    -0.24151119    -0.01862077     0.74858600     0.72745886
O      -6.03787645     4.17908534    -4.02377269     1.18313249    -0.36969348    -0.25945040
O      -5.76177558     4.90039284    -8.15140155    -1.32351807    -1.84817639     0.29826087
O      -2.15332300     0.47846939    -4.17760391     0.66441533    -1.41664174     0.90773990
O      -5.64357295     8.51553725    -7.85506791    -0.47173749     2.04055297    -0.13335921
O      -5.92492898     0.41739117    -4.13324589     0.26532890    -0.16033770     1.37860773
O      -9.89237662     8.12415945    -8.05428958     0.05311324     0.46638816    -0.47158913
