# total energy = -630.53468476 eV

CRYSTAL
PRIMVEC
        0.00279571     0.02951795    -7.98606283
       -7.83802570     0.01298533    -3.99532603
       -3.92160916     8.71933433     0.00634407
PRIMCOORD
56 1
Li     -3.87712500     2.16375672    -1.94387788    -0.92585894     0.17960418     0.03882279
Li     -3.98707547     2.20741428    -5.88173979    -0.15780892    -0.21358617    -1.06171046
Li     -7.87141081     2.26943203    -9.94976616     0.40883371    -0.08093621    -0.30728637
Li     -7.79614687     2.30491174    -5.78036191     0.09576823    -0.11598142    -0.64360051
Li     -3.88843923     6.29841720    -1.93642951    -0.31263928     0.34187023     0.08327141
Li     -3.92703639     6.50288562    -5.75728121     0.09904813     0.08380778    -0.39697919
Li     -7.86724671     6.52376480   -10.05511614     0.29568157    -0.22587271     0.61737296
Li     -7.70784312     6.23314010    -6.02774536    -0.51011134     0.58167262     0.88480382
Ti     -2.00734363     2.35952034    -4.17269510    -0.11037571    -0.32285130     0.80666311
Ti     -5.82708038     6.97762711    -7.94692467    -1.49401947    -0.10843576    -0.58498274
Ti     -7.68409512     4.33377593    -7.67738505    -0.80508136     0.49544460    -0.77031618
Ti     -7.98284745     4.37792991    -3.72630758     1.42414670    -0.06999958     1.15929976
Ti     -3.91736909     4.36492402    -7.68300405     0.24996765    -0.81161799     0.66629682
Ti     -4.02694601     4.47502299    -3.69285726    -0.76081842    -0.02582792    -1.35329408
Ti     -1.78949367     0.08105812    -2.24740830    -0.44508459    -0.87011051    -1.40812830
Ni     -5.86724655     2.30958469    -7.99709440    -0.27658748    -0.83727960    -0.36816756
Ni     -5.91015948     2.29942456    -3.95243588    -0.07428210    -0.20386994    -0.97002536
Ni     -9.85720364     6.37057131    -7.93107271     0.62977337     0.60958984     0.50980449
Ni     -9.82195383     6.48804499    -3.95513738    -0.10460343    -0.12025788    -0.17566041
Ni     -1.99543148     2.17564576    -8.07406844    -0.28074111     0.80678857     1.18516315
Ni     -6.00368800     6.73855963    -3.99454527     0.75479362    -0.70269364     0.16000497
Ni     -5.86236286     8.68894863    -5.99801199    -0.05628400    -0.12682332     1.03063124
Mo     -9.78484742     8.68593615   -10.30697874    -0.76156681     0.45389785     0.63930773
Mo     -9.78409374     8.58814088    -6.35022253     2.42323719     0.13060640     2.05515324
O      -2.09350954     1.93177738    -2.11973545     1.29297091    -0.02680844     0.46719675
O      -2.00618979     1.74641478    -5.98962083     0.37965469     1.55458316    -0.61946487
O      -5.87678911     6.81380164    -2.01637359    -0.50177942     1.00206664     0.57695425
O      -5.84510247     6.82969525    -5.95600374    -0.21882417     0.04375235    -0.22336987
O      -5.89564194     2.00294473   -10.04252740     0.19202181     0.11296792     0.55724532
O      -5.86940189     1.86972840    -6.05628541    -0.47923470     0.90532517     0.82802898
O      -9.77131261     6.80786011    -9.92170687    -0.28391440    -0.25626077     0.01521560
O      -9.82225356     6.72560636    -5.91592519    -0.48882853    -0.48538600    -0.39845249
O      -3.88374427     2.43993652    -4.12074807    -1.20814647     0.18761203     1.42700399
O      -3.99105643     2.39894565    -7.85481250     0.68941214     0.03257532    -0.69659611
O      -7.90218867     2.48272609    -3.92829295     0.59930491    -1.90653633    -0.22197574
O      -7.85533529     2.45587944    -7.96625527    -0.05325062    -0.71721765    -0.29354551
O      -3.92341017     6.55962760    -3.88832517    -0.01823807    -2.30471763     0.12308242
O      -4.05465844     6.30268721    -8.01830151     0.70615171     0.58510770     0.42141077
O      -7.94260385     6.26483415    -4.07054437     0.28238004     1.31439420     0.43870752
O      -7.78217124     6.29564625    -7.93687136     0.67031504     0.06983789     0.08470682
O      -3.84537498     4.21422909    -1.98524667     0.33518635     0.61392069     0.55061402
O      -3.81467381     4.38022475    -5.91902951    -0.66833733     0.56474166    -0.36338585
O      -7.89652713     4.39433994    -9.94549234    -0.09015202     0.18621944     0.16767632
O      -7.83814129     4.25883522    -5.90371400     0.09564708     0.53542586    -1.09712162
O      -4.02533503     0.00950954    -2.08626296    -0.09937360    -0.29961646    -0.05550715
O      -7.99628701     8.58304627    -5.88193688    -1.33868016     0.22181622    -0.97489962
O     -11.68676065     8.71148322    -6.03942982    -0.49925488     0.18934432     0.17802007
O     -11.62841667     8.70202601    -9.99110243     0.76662615    -0.13807764    -0.03872422
O      -2.01643133     4.20738474    -4.11808989     0.94794293     0.62167530     0.55733596
O      -1.99969300     4.15075550    -7.92865636    -0.79353043    -0.39812914    -0.85680058
O      -5.91960840     4.27719964    -3.84653133     0.17887073    -0.40216950    -0.73976493
O      -5.82877185     4.16800500    -8.02696406    -0.32583068     0.55928875     0.25795804
O      -1.91726039     0.26501635    -4.12342530     0.02793007    -0.81122675     1.58329748
O      -2.00555879     0.11876223    -7.89345714     0.31011227    -1.31953284    -1.21041433
O      -5.99057970     0.29646255    -4.08595873     0.23485111     0.68070041    -0.41148946
O      -5.83004437     0.47076853    -8.03582196    -0.06467273    -0.23640104    -1.61464389
