# total energy = -630.86901227 eV

CRYSTAL
PRIMVEC
        0.00279571     0.02951795    -7.98606283
       -7.83802570     0.01298533    -3.99532603
       -3.92160916     8.71933433     0.00634407
PRIMCOORD
56 1
Li     -3.84123563     2.22478142    -1.92104058    -0.79021802     0.36614287     0.11695564
Li     -4.00010199     1.83930134    -5.97769048     0.21222988     0.39788179    -0.29465172
Li     -7.72529055     2.37603020    -9.89581167    -0.09524227     0.15581348    -0.75953604
Li     -7.87810437     2.28960220    -6.08937364     0.24765828     0.01521297     1.08248274
Li     -3.91723115     6.15510747    -1.89126875     0.05683854     0.26430349    -0.78395122
Li     -3.86467721     6.61935426    -5.76987492    -0.13114881    -0.40582738    -0.45533285
Li     -7.84065325     6.66373788   -10.07660261    -0.32339399    -0.11657267     0.26356974
Li     -7.63083341     6.66042738    -6.00586701    -0.55577969    -0.23173805     0.52265382
Ti     -1.94447003     2.20995374    -4.14867548    -0.13877951     0.38434952    -0.00024859
Ti     -5.89166927     6.62320784    -8.10743762     0.82586083     0.39774364     0.75900436
Ti     -7.80769266     4.38774152    -7.79226039    -0.61301460     0.67665534     1.80826820
Ti     -7.96677282     4.46667432    -3.73034350     0.53645684    -0.78954076    -1.47082829
Ti     -3.76834928     4.38841067    -7.70468920    -1.35270666    -0.31500831    -0.15382077
Ti     -4.04086589     4.24699589    -3.86533295    -0.10906975     1.77294946     1.39767209
Ti     -2.08128431     0.05750640    -2.07607132    -0.55080517    -0.04816707     0.13242072
Ni     -5.91603351     2.45847374    -7.84727013     1.61300918    -0.49489478    -0.67441614
Ni     -5.93254338     2.32317511    -4.14904372    -0.41503983    -0.16757995     1.48845250
Ni     -9.79500367     6.43073104    -7.90467913     0.39601372     0.11058210    -0.37626833
Ni     -9.82476494     6.60810601    -4.06509458     0.16391215     0.58290195     0.38798084
Ni     -2.02081472     2.10937025    -7.95916211     0.48107873     0.21142311     0.72222064
Ni     -5.89532708     6.52311203    -4.02868028     0.62769450    -0.10920646     0.25537579
Ni     -5.76498092     8.71595662    -5.94341647    -0.77413260    -0.59351203     0.21711362
Mo     -6.01897116     0.06667711   -10.13704936     1.53396299     0.81671492    -1.13340195
Mo     -9.81235452     8.54056395    -6.36377095    -0.76103389     1.87441994     0.58363658
O      -1.98151162     1.97500825    -1.82146419     0.07136692    -0.91809672    -0.86535755
O      -1.97142237     1.86144499    -6.01315321     0.52037562    -0.02197755    -0.52199481
O      -5.91603201     6.78543877    -2.01758591     0.42140034    -0.34732317    -0.25299873
O      -5.75485696     6.86041442    -5.89798316    -0.17486093     0.46159410     0.26868009
O      -5.83386727     2.01557844   -10.07795943    -0.14453045    -0.76342777    -0.46042806
O      -5.89852206     1.92609382    -5.90606722    -0.48091845     0.35328911    -0.60379454
O      -9.75765870     6.92369689    -9.78172361    -0.21836774    -0.15742033     0.42864205
O      -9.86092356     6.75126552    -6.05670082     0.60959708    -1.87375271     0.52343171
O      -3.88068740     2.38535684    -4.16015187    -0.18006517    -1.05168743     0.75097385
O      -3.96405602     2.46917105    -7.84116923     0.23648629     0.14123807    -0.63219269
O      -7.96763192     2.52051424    -3.96586736     0.38722041    -0.43450688     0.01100013
O      -7.81701690     2.42465523    -7.99615979    -0.16742083    -0.33392640    -0.23160093
O      -3.78617512     6.21434502    -3.94161646    -0.99456348     0.11379516    -0.01667256
O      -3.95122351     6.44196957    -7.98197852    -0.10516879    -1.04374791     0.04526063
O      -7.80789065     6.39835582    -4.04145002    -0.28783107     0.09166131    -0.13681728
O      -7.83103120     6.37521264    -7.90893642    -0.02492368     0.33688807    -0.43004656
O      -3.83278280     4.26317769    -2.07750383    -0.44327998    -0.21808076    -0.37269204
O      -3.79513446     4.35795526    -5.96808526     0.34037054     0.72130808     0.33346693
O      -7.85701700     4.52582182    -9.97813571    -0.00761064    -0.16932363     0.93972190
O      -7.64382503     4.37385508    -6.02747901    -0.70141129     0.02539433    -0.70613602
O      -7.90550794     8.62758369    -2.22465255     0.78794848     0.87134098     1.03396121
O      -8.00402224     8.69025693    -5.98945148    -0.00376384    -0.61115482     0.23605009
O     -11.63180155     8.65520149    -6.18071816    -0.02726857     0.40551671     0.17949368
O      -7.74442140     0.03819557    -9.76076751     0.02722759     0.10089005    -0.27127024
O      -1.88333930     4.12984138    -3.94184095    -0.91809796    -0.49045809    -0.59378006
O      -9.81635605     4.74618618    -4.20004181     0.31352344     0.26304964     0.50294116
O      -5.96742958     4.34059764    -4.03943180     0.60077743    -0.21413756    -0.05854543
O      -5.88406730     4.44584560    -7.97306527     1.63699969    -0.00985503    -0.44752499
O      -1.90454049     0.26415515    -3.93387841    -0.00525460     0.26655134    -0.24972472
O      -5.73511440     8.47523174    -7.95127612    -0.74140111    -0.20398601    -0.54792183
O      -9.98515455     8.65955589    -3.98789804    -0.00118701    -0.21434350     0.37571999
O      -5.68537771     0.58297101    -7.99804505    -0.58904467     0.55158299    -1.97943488
