# total energy = -630.43737438 eV

CRYSTAL
PRIMVEC
        0.00279571     0.02951795    -7.98606283
       -7.83802570     0.01298533    -3.99532603
       -3.92160916     8.71933433     0.00634407
PRIMCOORD
56 1
Li     -3.94899205     2.24763551    -1.82559558     0.03145149     0.15977807    -0.28618328
Li     -3.87331282     2.33765786    -6.09996919    -0.38748668    -0.07880615     0.53213465
Li     -7.81263736     2.08609349   -10.09011410    -0.11257553     0.30286001     0.44959508
Li     -7.88810366     2.37111707    -5.90015357     0.20226265     0.41558938    -0.28690009
Li     -3.87009181     6.46739297    -2.03713097    -0.32631716     0.03145829     0.27335649
Li     -3.88192614     6.85967415    -5.95789276    -0.26094633    -0.19729397     0.16254190
Li     -7.79596418     6.71137353    -9.87014587    -0.64698758    -0.32175276    -0.31929170
Li     -7.90440471     6.57361594    -5.94541199     0.08390975    -0.42773820    -0.02865527
Ti     -2.12028376     1.90311740    -4.03907442     0.79100726    -0.31690295    -0.64996308
Ti     -5.92780925     6.39696094    -7.96578124    -0.40995196     1.03070532     0.07463156
Ti     -8.16633539     4.42238124    -7.78348540    -0.02253242    -1.03805831    -0.67054493
Ti     -7.84479209     4.48156095    -3.74264528    -0.31628217    -0.68898100     1.90482661
Ti     -3.84381772     4.44603181    -7.63350444     0.06594488     0.84422247     1.00509083
Ti     -4.00914348     4.36379480    -3.76053232     0.26567569     0.50416594    -1.09678497
Ti     -1.70401617     0.02195223    -1.71842193    -1.50146660    -1.15246261     0.15314394
Ni     -5.96896592     2.56675717    -7.99467692    -0.04025109    -0.38988665    -0.46990095
Ni     -5.83665247     2.14569314    -4.05178184    -0.87455303    -0.04077235     0.06458695
Ni     -9.87912269     6.53057085    -8.00427788     0.17604587     1.10338290    -0.00947871
Ni     -9.72676963     6.48914669    -3.99118143    -0.83977280    -0.53333030    -0.24582097
Ni     -1.98626790     2.08474534    -8.02459129     0.49741140     0.84611172     0.34668569
Ni     -5.91020262     6.56407598    -4.01786079     0.55957151     0.92355450    -0.14911853
Ni     -5.86361146     8.65812780    -6.02961559    -0.09896780     1.24158568     0.50794056
Mo     -5.74037497     0.09475301   -10.38927904    -1.45730063     0.08225086     1.14571493
Mo     -5.76048750     0.07187552    -6.32249936    -0.46073513    -0.56254091    -0.36868671
O      -2.04416887     1.91052340    -2.02321677     0.70649907    -0.64971022     0.70532244
O      -1.96244203     1.82425950    -6.13748202     0.11795915    -0.47113221     0.50950823
O      -5.94477706     6.79302542    -1.90455753     0.77330929     0.74074616    -0.43851115
O      -6.04608207     6.87021603    -6.03127632     1.02931621    -0.67094188     0.88838067
O      -5.80663568     1.97610024   -10.19833754    -0.08363176     0.52407120     0.88591495
O      -5.97190586     2.01788426    -5.90302095     0.54939028    -0.99912859     0.39572346
O      -9.81735467     6.82286948    -9.93331067     0.40774241     0.25301072     0.48897272
O      -9.81333080     6.73720351    -6.07538443    -0.17010359     1.45359493    -0.45192486
O      -3.97650188     2.14398860    -3.97981920    -0.15257823     0.30825562    -0.56476875
O      -3.91444355     2.63446792    -7.96151189    -0.52022822    -2.28826177    -0.17158286
O      -7.73290050     2.53420579    -3.97289116    -0.60861531    -0.71688887    -0.59464309
O      -7.85252330     2.49296137    -8.01556476     0.07498298    -0.05465566     0.22744717
O      -3.92146979     6.39603497    -4.08106303     0.24276865    -1.17236199     1.11180359
O      -3.99334843     6.34484753    -7.90024762     0.47180624     0.55707702    -0.50739888
O      -7.81669799     6.46244141    -3.99798057    -0.06512746    -0.77222506     0.35256439
O      -7.94586573     6.32017358    -7.97382864    -0.44381970     0.95722149    -0.33716391
O      -4.03325100     4.20413678    -2.02654990     0.17005588     0.73682538     0.39117277
O      -4.19522630     4.33058211    -5.86282967     0.77084184    -0.44226247    -1.40176478
O      -7.95593778     4.38488547    -9.92421547     0.29045171     0.50970722    -1.65779148
O      -7.86624740     4.50125771    -6.05605955    -0.16866747    -0.51527937     0.78169299
O      -7.93539192     8.69025809    -9.85400892    -0.11487673     0.49265772     0.01002605
O      -4.03314963     0.09130980    -5.99761869    -0.54848440    -0.14568173    -0.82154238
O     -11.71960967     8.67585950    -5.94959626     1.24477126     0.20083656     0.32967257
O      -7.59318345     0.07528417   -10.01374641     0.57823320    -0.09947047    -0.53567215
O      -2.14064456     3.80277485    -4.07540418     0.28408433     1.32382573     0.16793138
O      -9.83644469     4.62468238    -4.03632912     0.57421420     0.12927777     0.30199826
O      -5.90776224     4.67384812    -3.91745562    -0.92870574     0.40271823    -0.32312097
O      -5.97790362     4.61011465    -8.07340880     0.39100103    -3.05505406     0.32824690
O      -5.78069968     8.68010580    -4.06376734    -0.55552747     0.53801200     0.21512154
O      -5.96399083     8.38252022    -7.83834705     0.39275465     1.31888163    -1.78805079
O      -9.59587092     8.31149760    -4.12174434    -0.68663359     0.31354421    -0.91847433
O      -6.06236487     0.68851743    -8.00106238     0.90151601    -0.14481018     0.38901651
