# total energy = -630.82926860 eV

CRYSTAL
PRIMVEC
        0.00279571     0.02951795    -7.98606283
       -7.83802570     0.01298533    -3.99532603
       -3.92160916     8.71933433     0.00634407
PRIMCOORD
56 1
Li     -3.99357150     2.09488820    -1.90748770     0.42593338     0.49422581    -0.02826871
Li     -3.98368726     2.27097785    -5.94783252    -0.20003576    -0.20964225     0.33985858
Li     -7.84967776     2.33276772   -10.05615481    -0.15762028     0.04408144     0.25676383
Li     -7.68877824     2.11756718    -5.97419641    -0.76186648     0.26688247     0.23037408
Li     -3.98173534     6.49592253    -2.04471796     0.17347247    -0.15795074    -0.01701157
Li     -3.88226956     6.40739731    -5.93272267     0.04986415     0.35918842     0.31476318
Li     -7.93543928     6.38834815   -10.00443830     0.22782308     0.01672695     0.38259669
Li     -7.83927048     6.49889103    -6.10484502    -0.02671804    -0.03294253     1.22818335
Ti     -1.90075828     2.17027063    -3.96777477    -0.97572053    -0.12013965    -0.40263433
Ti     -5.84208507     6.73036085    -7.90341894     0.20573291    -0.39760339    -0.44243045
Ti     -7.71729235     4.31729125    -7.83761649     0.20542454     1.28380299    -1.04562469
Ti     -7.81898082     4.36608184    -3.79850915     0.54884663    -0.09656327     0.65462401
Ti     -3.73749439     4.35720371    -7.58483324    -0.66094328     0.99089081    -2.40431631
Ti     -3.98420649     4.34614984    -3.76919827    -0.26245481     0.22335578    -0.84740382
Ti     -6.10853834     8.66297826    -2.08682071    -0.42290246    -1.17781359    -0.00999549
Ni     -5.83188248     2.42781879    -7.97078023     0.44804775    -0.78653734    -0.53177072
Ni     -5.91816162     2.08592678    -3.98810456     0.32259123    -0.06308774     0.84686048
Ni     -9.86070008     6.66138058    -7.94632405     1.69767152    -0.26058906    -0.37172322
Ni     -9.84731310     6.43971928    -4.04868596     0.84059281     0.38441469    -0.19083555
Ni     -1.91126442     2.06420784    -7.96970021    -0.51749058     0.18187245     0.18891410
Ni     -6.04473323     6.68155131    -4.07697022     1.14840884     0.00187737     1.11696019
Ni     -5.89629741     8.74078208    -6.01449988    -0.72604375    -0.79795368     0.46356930
Mo     -5.97824669     0.18787825   -10.24818074    -0.43654808    -0.72731284    -0.83657476
Mo     -9.76194395     8.68983380    -6.38183896     0.50845568    -1.08556144     0.84298621
O      -1.90441951     1.79139832    -1.94143145     0.47688288     1.31785471    -0.36289749
O      -2.19667994     1.83547956    -6.01379217     1.85797207    -0.08262129    -0.10120306
O      -5.92087322     6.78578025    -1.97978029    -0.43729910    -0.17390356    -0.32963103
O      -5.81698407     6.78777488    -5.94343479    -0.24486340     1.24161098    -0.75265899
O      -5.89814649     2.18048095   -10.02231087    -0.05308397    -1.17276637    -0.91009567
O      -5.84468727     1.92590984    -5.85897188    -0.25403128    -0.47291757    -0.27268634
O      -9.72746939     6.91921851    -9.84316459    -0.98786723     0.56536715     0.32074928
O      -9.70383219     6.73259906    -6.08793133    -0.60055964     0.18741448     0.06816833
O      -3.93159351     2.34998685    -3.89341182    -0.52329784     0.10469677    -0.25797432
O      -3.88853878     2.53188158    -7.98452035     0.06303093    -0.87341322     0.09315902
O      -7.87353472     2.35485274    -4.01152351     0.62068462     0.42304022     0.12316665
O      -7.81680773     2.35489424    -8.05242831     0.34200883    -0.46162272     0.16532898
O      -3.76297103     6.34724266    -4.05121793    -0.81787037     0.09012824     0.38487197
O      -3.96741072     6.40347300    -8.05217775     0.59474230    -0.94827217     0.96909465
O      -7.97209535     6.35019028    -4.00317566    -0.14374467    -0.69485535    -0.17980789
O      -7.73631063     6.32546570    -7.89595788    -0.77455203    -0.29270016    -1.12841630
O      -3.96728079     4.50721960    -2.07081267    -0.04544527    -0.24333056     1.35322479
O      -4.05906822     4.43442879    -5.89466587     0.65636790    -0.18442146     1.01197057
O      -7.95370987     4.37588867    -9.97111263     0.24139969    -0.18198443    -0.66751313
O      -8.00499831     4.24694379    -6.15699194    -0.21460243     0.01713418     2.22547642
O      -4.01317781     0.13846323    -9.96639683     0.10994988     0.13268285    -0.34904700
O      -7.95258849     8.64435056    -5.82214718    -0.56624388    -0.01215644    -1.30956392
O     -11.55188285     8.49579749    -6.03487334     0.83548674     1.38623610    -0.29907225
O      -7.77122464     0.14478911   -10.01977138     0.51022310     0.14686672    -0.38708500
O      -2.00273277     3.97701778    -4.08031318     0.15310383     0.29477816     0.07968658
O      -9.74533948     4.44474825    -3.99538980    -0.91127917     1.03616859    -0.21805636
O      -5.99284261     4.80279053    -4.05172054     0.65742209    -0.03263306    -0.12370004
O      -5.77751404     4.36908549    -7.78988431    -0.85656677    -0.47091294    -1.04381131
O      -1.98488763     0.04166037    -3.96732502     0.13734023    -0.08137665    -0.23966659
O      -5.90174358     8.54723821    -8.05034453     0.14265007     0.30281069     0.37819914
O      -9.68207101     8.33542942    -3.99968130    -0.99263601     0.19917615     0.68635706
O      -5.70270814     0.50300857    -8.17772867    -0.67581545     0.97584387     1.33333762
