# total energy = -630.11587283 eV

CRYSTAL
PRIMVEC
        0.00285542     0.02004370    -7.95977623
       -7.82940539     0.00763210    -3.98158109
       -3.91729101     8.74642787     0.01461334
PRIMCOORD
56 1
Li     -3.96905432     2.24817111    -1.98998581     0.04649937    -0.06959420     0.46064605
Li     -3.86698668     2.09983824    -6.22283154    -0.17893237     0.00878973     1.21098241
Li     -7.72997833     2.20670381    -9.84832278    -0.44042893     0.20113560    -0.43958308
Li     -7.90895319     2.20471002    -5.93952186     0.84985184     0.39469835     0.21656433
Li     -3.96478548     6.63289699    -2.03607804     0.57738534    -0.30796275     0.42187005
Li     -3.95786901     6.28750195    -5.85880334     0.59654195     0.12016372     0.22887958
Li     -7.79899227     6.57190985    -9.82680003    -0.21982822    -0.31331425     0.00012675
Li     -7.89745935     6.32211740    -5.87144872     0.18642913     0.07683704     0.11271870
Ti     -2.08676653     2.32874628    -3.83423895     0.55291997    -0.83990090    -1.56614955
Ti     -5.79601877     6.82039448    -7.82027325    -0.80880969    -0.64076962     0.25713112
Ti     -7.83086596     4.36604314    -7.79629542     0.64918167     0.51762686     1.73992501
Ti     -7.91959563     4.43265887    -3.71250520     0.81596516    -1.17597130     0.53625435
Ti     -3.80807658     4.45029173    -7.75819494    -1.11439520    -0.33558150    -0.48769149
Ti     -4.16663813     4.33469003    -3.80390370     2.08610778    -0.20586706     0.09217635
Ti     -5.98106835     8.66136100    -2.10579390    -0.63795205     1.07046386    -1.34449281
Ni     -5.82437130     2.38312415    -8.04208521    -0.23459908     1.41109382     0.17778623
Ni     -5.89431168     2.25740877    -4.08746479    -0.08121605    -0.31660444     0.87971937
Ni     -9.86171663     6.53318941    -7.80238756     0.92081361    -0.20920216    -0.07976539
Ni     -9.74578039     6.56994045    -4.05299949    -0.15263969    -0.17505265     0.66702950
Ni     -2.05191628     2.13571736    -7.79296391     1.39359815    -0.12911674    -1.39890309
Ni     -5.86129726     6.52656893    -3.91540560    -0.36052317     0.08926550    -0.84033232
Ni     -5.76765093     8.70612504    -5.87938985    -0.75350161     0.16137183    -0.54680729
Mo     -9.84167544     8.76578451   -10.26763937    -0.75133899     1.13453987     0.75159724
Mo     -9.75538909     8.68738483    -6.37782522     1.17754624    -0.16788429     0.35908548
O      -1.88738600     1.90989450    -1.97596302    -1.04623255    -0.25691036     0.43426188
O      -1.87772087     1.78455613    -6.00572980    -0.65585697     0.36449170     0.63459191
O      -5.81492427     6.75617754    -2.02944535    -0.62758528     0.39606299     1.04690766
O      -5.77180037     6.80149514    -5.94079370    -0.01204233     0.25474757     1.23848368
O      -5.83028242     2.01691385   -10.07716040    -0.20257548    -0.52215728    -0.71731966
O      -5.72170170     1.91348629    -5.88623767    -1.47623501    -0.69594904    -0.91840640
O      -9.69676884     7.02696249    -9.62689510    -0.73643891    -0.41160659     0.09981620
O      -9.85754332     6.61550228    -5.95282350     0.25622974     1.60959236    -0.97890533
O      -3.98589545     2.29395405    -4.05218111     0.82664078     0.45969095     0.58041211
O      -3.96789734     2.54584274    -8.01231176     1.29418864    -0.99679537    -0.28483710
O      -7.84376638     2.50973078    -3.97409997    -0.15285949    -0.73957895     0.06807514
O      -7.76775156     2.46332634    -7.95426785    -0.32416411    -0.85550287     0.08576110
O      -3.91606817     6.22762372    -3.89703081     0.33514895     1.01573328    -0.69887180
O      -3.81992130     6.47118955    -7.81106237    -1.39383927    -0.32123036    -0.70499025
O      -7.86568798     6.35768128    -3.95006397     1.00804202     0.59928838    -0.08852531
O      -7.71846852     6.35539811    -7.70570596    -0.44643005     0.30471095    -1.77916027
O      -3.93537624     4.21641965    -2.06498265     0.24756238     0.12338634     0.32702619
O      -3.87657190     4.24039362    -6.03743166    -0.11470455     0.36760257     1.16318694
O      -7.81403403     4.43961525    -9.88398012    -0.07201402     0.21074507    -0.59178215
O      -8.16336229     4.29905567    -6.00332388     0.60854517     0.34429924    -0.79101332
O      -3.96713752     0.02277026    -2.12501552     0.56793787    -0.03723130     0.07054532
O      -7.94184003     8.61427729    -6.02979256    -0.74246688    -0.16137019     0.09521283
O     -11.57432639     8.64497563    -6.06070746    -0.38552220     0.34875602    -0.23671920
O      -7.73520577     0.17016241    -9.99636225     1.09559650    -0.71219232    -0.09365981
O      -1.98965844     4.13559929    -4.19650758    -0.48779293    -0.06263267     0.43009651
O      -9.75548573     4.79278291   -11.73082626    -0.60854448    -0.44138553    -0.84516287
O      -5.93145451     4.42080259    -4.17740869    -1.78691817     0.11280300     0.10387929
O      -5.85579702     4.37072574    -7.96500010     0.08145250    -0.04494895     0.07433624
O      -1.98233705     0.24720258    -3.97607396     0.47517818    -0.21592965     0.70359374
O      -5.99788681     8.62090706    -7.90223667     0.79501999    -0.64529576    -1.04763841
O      -9.87448191     8.39633202    -4.11335916     0.47751559     0.78465271     0.60826999
O      -5.66852390     0.58644260    -8.14222144    -0.79779175    -0.76390829     0.55581126
