# total energy = -630.96402830 eV

CRYSTAL
PRIMVEC
        0.00285542     0.02004370    -7.95977623
       -7.82940539     0.00763210    -3.98158109
       -3.91729101     8.74642787     0.01461334
PRIMCOORD
56 1
Li     -4.03955135     2.26039995    -2.01037284     0.61136641     0.04006789     0.36438771
Li     -3.94707939     2.17019242    -6.04890342     0.60957100    -0.13752798     0.37952268
Li     -7.98846398     2.27944617   -10.01986264     0.64263560     0.20969225     0.16782918
Li     -7.86569557     2.37794310    -5.86123308     0.43564115    -0.37631054    -0.23719469
Li     -3.79933826     6.73030826    -1.87029807    -0.55587226    -0.26960956    -0.10257050
Li     -3.94315188     6.55847135    -5.97192772     0.22170939    -0.19509372     0.48702168
Li     -7.95472936     6.51928290    -9.92465226     0.49983086    -0.20509611    -0.21607611
Li     -7.86414794     6.49580983    -5.87049049     0.28785142     0.01725862    -0.27157467
Ti     -2.00609233     2.04674177    -4.06151280    -0.78031844    -0.74519805     0.23393733
Ti     -5.88828476     6.44984932    -7.93849002     0.18286922     0.26610778    -0.47928301
Ti     -8.00562148     4.36868120    -7.71034850     0.50181329    -0.18791149    -0.36506649
Ti     -7.70265358     4.35227401    -3.77080792    -0.13733577     0.11293478    -0.76404816
Ti     -3.73839866     4.26161188    -7.64928864     0.61262551     2.44006692     0.03780106
Ti     -3.88586863     4.52835251    -3.72996976    -0.93228034    -1.07414169    -0.22302272
Ti     -2.15427238     0.02077932    -1.87786058    -0.56449379    -0.40324624     0.46020131
Ni     -5.92501957     2.45595330    -8.10639863     0.15201829     0.76143731     0.78363711
Ni     -5.81573677     2.09474633    -3.99204255    -0.80021862    -0.53347579    -0.12044801
Ni     -9.87746798     6.83200499    -7.91237090     1.18812853    -0.72569869     0.14352940
Ni     -9.73222202     6.47094415    -4.17552813    -0.59686482     0.52474387     1.10511915
Ni     -1.89331109     2.14518762    -7.94165941    -0.69639249    -0.55330970     0.02520564
Ni     -5.85592707     6.75548754    -3.92055346    -0.55911206    -1.57837837     0.20037784
Ni     -5.85979432     8.59899568    -5.92946103    -1.22004271     0.37963152    -0.13528488
Mo     -6.03608144     0.05090647   -10.22650331     1.08416067    -0.35857738    -0.52267667
Mo     -5.85034288     0.08677763    -6.34119925     0.46056594     0.54131903    -0.46876831
O      -1.85874834     1.90446241    -1.89019636    -0.62207059    -0.03918925    -0.54488732
O      -1.96183172     1.72506803    -5.98173592     0.02566787    -0.05919961    -0.50557960
O      -5.81892189     6.80101072    -1.99012295    -0.24564203     0.40734366     0.42741498
O      -5.95821190     6.75660668    -5.80049263     0.64286956     0.87553099    -1.24285901
O      -5.92097208     1.98589388   -10.07803510    -0.20511313     0.11213192    -0.56535852
O      -5.72414510     1.99734483    -5.85385964    -1.42857840    -0.08281289     0.22947661
O      -9.73645292     6.91553638    -9.71496927    -0.88935959     0.58682601    -0.72260313
O      -9.68782299     6.84064650    -6.09454017    -1.13025044     0.44258213     0.43415489
O      -3.96773025     2.21349984    -3.93778552     0.86904679     0.78926964     0.08874623
O      -3.90884285     2.46658183    -7.99760126     0.02065191    -0.83776853    -0.33734593
O      -7.85989428     2.23704204    -3.98034415     0.89227813     1.70580864     0.31972622
O      -7.84424007     2.35556555    -8.05982033     0.01107959     0.96289863     0.54121718
O      -3.87055140     6.41632751    -3.88066757     0.51983879     1.09779445    -0.62506378
O      -3.98362524     6.29758096    -7.87633083     0.62176721    -0.27827660    -0.23351354
O      -7.89551192     6.36679843    -4.00961112     0.38716571    -0.04441424     0.51171548
O      -7.91526749     6.26152156    -7.96939186     0.02049741     0.53384422     0.10308652
O      -3.82806415     4.42568839    -1.98896324    -0.05821341    -0.59983778     0.02213200
O      -3.68819654     4.17932123    -5.88380794    -0.71286607     0.45166252    -0.59475956
O      -7.76372602     4.39321341   -10.00337006    -0.39603241    -0.38519819     1.05774300
O      -8.06816524     4.40705531    -5.96256475     0.55452478    -0.53902498    -0.17880855
O      -3.98305829     0.07930140    -9.87685079    -0.05899739    -0.06532383    -0.42639261
O      -7.94768469     8.75899156    -6.06789373     0.04303969    -0.21850963     0.17943031
O      -7.62992933     0.08939845    -5.96880216     0.02790802    -0.58465740    -0.17787346
O      -3.84149553     8.59315350    -5.91600880    -0.45686040     0.59432222    -0.27350556
O      -2.03885829     3.90896346    -4.08491829     0.62889291     0.74329766     0.37984697
O      -9.67388758     4.66227827    -3.99879955    -1.02865965    -0.55977240     0.18783616
O      -5.84628553     4.84635384    -4.03347797     0.50390078    -0.24974436    -0.02105173
O      -5.93697147     4.51799034    -7.88108414     0.27919389    -1.69091337    -0.07293404
O      -1.96001344     0.03146623    -3.89567811     0.10014013    -0.06236543     0.13349488
O      -5.92024856     8.32941353    -7.89931068     0.24094890     0.40791751    -0.20085220
O      -9.85394127     8.38091257    -4.04481230     0.36049707    -0.28193032     0.76004755
O      -5.85013809     0.66246990    -8.13719685    -0.21296623    -0.86630126     0.79409000
