# total energy = -630.90885744 eV

CRYSTAL
PRIMVEC
        0.00279571     0.02951795    -7.98606283
       -7.83802570     0.01298533    -3.99532603
       -3.92160916     8.71933433     0.00634407
PRIMCOORD
56 1
Li     -3.92937747     2.18578636    -1.80782802     0.01487061     0.09911174    -0.29667454
Li     -3.83634446     2.35015233    -6.01962951    -0.48669816    -0.16745689     0.23443812
Li     -7.97060039     2.36580652    -9.93471311     0.84488731    -0.23538978    -0.25451919
Li     -7.89842399     2.25628869    -5.96711930     0.50206332     0.08612417     0.03199484
Li     -4.03486532     6.56938514    -1.79504624     0.44443996    -0.10779460    -0.47444371
Li     -3.91646160     6.51314961    -5.76115896     0.01277820     0.28797893    -0.55969494
Li     -7.83520072     6.46037094    -9.97427281     0.21126637    -0.14537843    -0.10164569
Li     -8.10770090     6.42766717    -5.79628877     0.69802596    -0.04680657    -0.51913691
Ti     -2.05521260     2.42503394    -3.91246723     0.52152583    -1.00767557    -0.08756671
Ti     -6.04949420     6.74898832    -7.80431283     0.34857718    -0.08692080    -1.16794530
Ti     -7.78474471     4.41596896    -7.79978834     1.45531139     1.08141077     0.49239839
Ti     -7.85350629     4.32941175    -3.80088102    -0.03246983    -0.55556001    -0.67688689
Ti     -3.83097203     4.50000814    -7.67735033    -0.47405784    -0.14751833     0.27872203
Ti     -4.16667672     4.42508603    -3.66075038    -0.45887076     0.88299023     0.88391014
Ti     -1.93975494     0.01353046    -2.23943674     0.18962673    -0.04159374     0.18693487
Ni     -5.81334927     2.10962635    -8.00850949     0.34245878     0.15385935     0.37452018
Ni     -5.93909452     2.16422182    -3.99885634    -0.07366981    -1.44115943    -0.31312450
Ni     -9.90255423     6.30242117    -8.00853468     0.72530222     1.02828310     0.49288997
Ni     -9.75210129     6.52444816    -3.97423739     0.08380453     0.39906836    -0.36566160
Ni     -1.94508420     2.13784942    -7.98681792    -0.15478377     0.20712795     0.02485488
Ni     -5.91522968     6.68984917    -4.05513737     0.03451408     0.03981147     0.56830606
Ni     -1.87321342     0.11347580    -6.02685518    -0.12943689    -0.07392937     0.34002531
Mo     -9.76455715     8.61152321   -10.30679180    -1.15274128     3.02956151    -0.72742963
Mo     -5.86127458     0.03553515    -6.32562205    -0.10173931    -0.09487489    -0.70147866
O      -1.94770052     2.05270376    -1.93039303    -0.32331883    -0.84710157    -1.61383677
O      -1.94282612     1.90720319    -6.01384896    -0.09192299     0.63480379    -0.01553778
O      -5.94466281     6.84367976    -2.15137760     0.13162159    -0.01677917     0.44462819
O      -5.85672588     7.00903953    -5.98492857    -0.15707763    -0.86737286     1.27238761
O      -5.75687906     1.79393572    -9.82753372    -0.84348906     0.65948075     0.12012645
O      -5.96127075     1.95551658    -6.17103861     0.42443354     0.03610552     0.92118863
O      -9.74353998     6.82262417   -10.10014979     0.34310051    -2.66008079     0.84367716
O      -9.89985592     6.82967716    -5.83801184     0.05444813    -0.23845216     0.55613572
O      -3.92126494     2.51138264    -3.97630199     0.41888719    -1.18149146    -0.14237377
O      -3.89682603     2.46323062    -7.93654279    -0.90478746    -0.14130358     0.42193401
O      -7.85532021     2.34166099    -4.04611831     0.03240557    -0.17426933     0.52839602
O      -7.78518106     2.60368378    -8.02562937    -0.36948632    -2.26586910    -0.23789464
O      -3.99963973     6.34733343    -3.83680133     0.17213777    -0.05739071    -0.53494513
O      -3.75243756     6.41361613    -7.86580388    -0.99770677    -0.03708198    -0.27306235
O      -7.79083231     6.25321155    -3.93399875    -0.37865198     0.81504471    -0.79630382
O      -7.93984969     6.41920411    -7.98126301     0.65314204    -0.31279597     0.10316291
O      -4.07112664     4.42584955    -1.88073530     0.18185779    -0.14879234    -1.04085682
O      -3.88835419     4.61185543    -5.86682476     0.09935331    -1.01819818    -1.20678445
O      -7.90315550     4.38009776   -10.04564980    -0.05751580     0.17562723     1.27715009
O      -7.84447370     4.39032269    -6.04994889    -0.04651983     0.51392396     0.49916542
O      -3.92348222     0.06951128    -2.17847030    -0.27836781    -0.60315525     0.21602009
O      -8.02231303     8.71599722    -5.98027443    -0.13422108     0.34320905    -0.02605211
O      -7.80714930     0.04762040    -6.07676291     0.19427243     0.12003814    -0.15920468
O     -11.59882190     8.70366934   -10.06081447     0.98540472    -0.00662510     0.28397690
O      -1.97215526     4.34324109    -3.90614482    -0.85531450    -0.00336675    -0.41017023
O      -1.94196486     4.01001695    -0.09795462    -0.41425300     0.49469151     0.44059269
O      -5.95424606     3.91189688    -4.09065204     0.01628327     1.80297805     0.31601140
O      -5.84523838     4.81006961    -8.00850657    -0.12054019     0.49088226     0.42301752
O      -1.86092047     0.38300658    -4.06907627    -0.24235057     0.74736217     0.25535868
O      -5.88985575     8.63375659    -8.03111348    -0.18158202     0.02195403     0.05693122
O      -5.93911673     0.29458917    -4.10390700     0.27452854     0.27379259    -0.08296526
O      -9.69130796     8.16958086    -8.06397945    -0.91379117    -0.17512003    -0.11506032
