# total energy = -630.82435422 eV

CRYSTAL
PRIMVEC
        0.00285542     0.02004370    -7.95977623
       -7.82940539     0.00763210    -3.98158109
       -3.91729101     8.74642787     0.01461334
PRIMCOORD
56 1
Li     -4.09426272     2.59998259    -1.98476531     0.32887753    -0.79996063     0.14525314
Li     -3.94641750     2.17535559    -5.95590922     0.07735352    -0.24751581     0.08232827
Li     -7.97527040     2.34523512    -9.97450771     0.70000149    -0.02402012     0.17561998
Li     -7.72317034     2.30662052    -5.92021851    -0.41906191    -0.46339651    -0.19361255
Li     -4.01913209     6.42393082    -1.95759808     0.68257528     0.10716501    -0.19361782
Li     -3.85017846     6.76540273    -5.81348069    -0.07184046    -0.64637044    -0.12503176
Li     -7.79613684     6.32298435    -9.94577919    -0.02089663     0.29696411    -0.16679542
Li     -7.74722946     6.42383650    -5.90030750    -0.41285933     0.41258190    -0.03721303
Ti     -1.98110371     2.42438974    -3.98018220     0.24951403    -1.84596970     0.48378727
Ti     -5.72948942     6.89666357    -7.88958549    -1.10654463     0.21323959     0.09053718
Ti     -7.65992821     4.40122841    -7.70299736    -0.51105243     0.31457610    -1.03760791
Ti     -7.89141272     4.30408547    -3.85381296     1.57628850     1.54799358     0.83742363
Ti     -3.92161625     4.24742782    -7.67108581     0.67129974     1.02035115     0.38946824
Ti     -4.01404150     4.42369231    -3.79554684    -0.92678907     0.76256847     0.61971789
Ti     -6.12395342     8.75033856    -2.04081234    -0.55222334     1.37487668    -0.90491072
Ni     -5.77602048     2.25280379    -8.05481375    -1.57880826    -0.03914071     1.14477973
Ni     -5.91601457     2.22483845    -4.20308489     0.74634676     0.09525388     1.12196432
Ni     -9.71089272     6.38554617    -7.88550631     0.04516903     0.07588003    -0.49591063
Ni     -9.81023857     6.34589632    -3.95331758     0.71678720     0.06384015    -0.70405453
Ni     -1.98367502     2.31590364    -7.91363955     0.68634531    -0.82543891    -0.51168941
Ni     -5.97019884     6.77639076    -4.01088197     0.43947354    -0.23919111     0.42272139
Ni     -5.96575632     8.75202068    -5.84510616     0.09981944     1.37497475    -0.00980418
Mo     -5.96892570     0.03297663   -10.19152405     1.23574554     0.31793184    -1.88065447
Mo     -9.80336118     8.60321297    -6.31183387    -0.48829400    -1.08117838     1.12989344
O      -1.97243116     1.92074535    -1.96859768     0.44256838     0.33576128    -0.19695662
O      -2.04427833     1.89959477    -5.86585723     0.52317010    -0.50343245    -0.45688206
O      -5.85987751     6.87801757    -1.92431112     0.02529046    -0.36685675    -0.13292217
O      -5.84531809     6.94057237    -5.88287298    -0.26097861    -0.71691876     0.02176933
O      -5.93796681     1.93900051    -9.90721679     0.45956578     1.31826438    -0.86296923
O      -5.81297302     1.89834523    -6.11858491    -0.32802662     1.02236666     0.57317790
O      -9.66823487     6.90060685   -10.06076646    -0.66171371    -0.89111162     0.93664044
O      -9.74535058     6.67090269    -6.03323606    -0.40232239     0.35224523     0.64709046
O      -3.85914470     2.31454074    -3.95884419    -0.83521035     1.34923502     0.15569924
O      -3.85798934     2.32675846    -7.98571263    -0.34173855     0.72428727    -0.03003846
O      -7.86921497     2.41224193    -3.94470367     0.10131682    -0.77384938    -0.71729262
O      -7.78074580     2.44596711    -7.98484457    -0.56153438     0.75508025     0.18038361
O      -3.79215211     6.32624173    -3.99295265    -0.23930197     0.02446940     0.20384593
O      -3.95105271     6.31914368    -7.88178604     0.46092287    -0.06163386     0.13192127
O      -7.88989908     6.37766286    -4.01567534     0.08236695    -0.51523652     0.27807760
O      -7.69740858     6.44723515    -8.03737549    -0.07640560    -1.43153428     1.18279644
O      -3.90523712     4.50947022    -1.97028282    -0.25215268    -0.87323337    -1.03772081
O      -3.80371331     4.26466044    -5.91499119     0.20391893     0.09217698    -0.34213677
O      -7.79984357     4.45580038   -10.05263415    -0.09307722    -0.36623913     0.84212120
O      -7.86467568     4.44765685    -5.96952929     0.08624926    -0.04029962    -0.08431570
O      -4.07804143     0.03890563    -9.87634914     1.89277258     0.06399444     0.11849821
O      -8.01728645     8.61703292    -6.01429940     0.82531941     0.34464590     0.01218919
O     -11.56371399     8.64755032    -5.87091283    -0.39125947    -0.04459618    -0.34840263
O     -11.57796888     8.65931998    -9.81623906    -1.88673720     0.15648684    -0.28302151
O      -1.94447287     4.26607908    -3.95579784     0.55248301    -0.02048224    -0.37271059
O      -1.95322815     4.30384230    -0.03040355    -0.92157533     0.03788631    -0.29114414
O      -5.85167903     4.17337797    -4.15602780    -0.36541569    -0.38068930     0.10171249
O      -5.80216816     4.30127713    -7.84580690    -0.22436999    -0.27454222    -0.63010136
O      -1.97555207     0.17595679    -3.91309382    -0.04405388    -0.22798508     0.18896268
O      -5.71750159     8.73661221    -7.81771420    -0.35636293    -0.61579491    -0.53177705
O      -5.89354871     0.34212668    -4.08675279    -0.09730550     0.07839585     1.18663099
O      -6.00414201     0.43517439    -8.03801504     0.75677539    -0.22562154    -0.97756367
