# total energy = -630.79535215 eV

CRYSTAL
PRIMVEC
        0.00279571     0.02951795    -7.98606283
       -7.83802570     0.01298533    -3.99532603
       -3.92160916     8.71933433     0.00634407
PRIMCOORD
56 1
Li     -3.87424801     2.24919095    -2.00481564    -0.17415762    -0.08888166     0.39734091
Li     -3.94245736     2.27056155    -5.83132019     0.45806994    -0.08397763    -0.81897882
Li     -7.86272513     2.47440789   -10.09610630     0.17021024    -0.25549849     0.50731367
Li     -7.52377723     2.08075239    -5.90563429    -1.14121084     0.15606033    -0.09580700
Li     -3.94757644     6.44070540    -1.83417430    -0.15574504    -0.12235826    -0.53277438
Li     -3.91705628     6.53134108    -5.66233722     0.05716207     0.01556436    -0.98810803
Li     -7.95238268     6.60035282    -9.97090857     0.66616153    -0.38612509     0.36242539
Li     -7.82846981     6.54107919    -5.88147008    -0.10543528    -0.19463449     0.37258306
Ti     -1.98944870     2.16776475    -3.93629950     1.27423985     0.03013123     0.20864986
Ti     -5.91213656     6.74004059    -7.81000497     0.41193025    -0.55809191    -0.78739186
Ti     -7.87265393     4.37267538    -7.70665040     0.40842198    -0.31153181     1.43724816
Ti     -7.97660905     4.46310570    -3.79575012     0.32338656    -0.75608674     0.45122189
Ti     -3.89893991     4.34687677    -7.64978681    -0.10300881     0.52367840     0.02040463
Ti     -3.94046973     4.42630813    -3.76884803    -0.44310746    -0.45168102     0.96752437
Ti     -6.08925888     8.60629842    -2.20231311    -0.15272623     0.43623489    -0.17776711
Ni     -5.80536126     2.32490170    -8.10525568    -0.31245930     1.12944737     0.24245171
Ni     -5.80987961     2.47959679    -4.05725604    -0.35982677    -1.29509180     0.60810600
Ni     -9.76910227     6.50164294    -7.83994227    -0.15334798     0.34007375    -0.40369991
Ni     -9.86672077     6.56631681    -4.02888279     0.55971825    -0.89006791     0.28310656
Ni     -1.85684712     1.98507288    -7.95155789    -0.80464698     0.20119269    -0.73670955
Ni     -5.89705634     6.40883403    -3.95668455    -0.16543173     0.44493940     0.44864336
Ni     -2.05484382     0.06155269    -5.90334579    -0.04466532    -1.81689204    -1.84728081
Mo     -6.05244712     0.06199092   -10.31911794     1.30739970     1.79634202     0.93029898
Mo     -9.74939384     8.61065910    -6.43807227    -0.27316807     2.32373673     0.59404212
O      -2.00132850     1.78947676    -1.97717424     1.24361792     1.19120910    -0.14312057
O      -2.02705551     1.83404079    -6.10008563     0.24196015     0.81112023     0.43105674
O      -5.91837126     6.75572917    -1.92579522     0.10386456    -0.70922848    -0.74573660
O      -5.91219264     6.86290951    -5.87509027     0.41704161     0.31998942     0.18596442
O      -5.82524155     2.09457469   -10.16989896    -0.60736118    -1.13946371     0.25116679
O      -5.71890047     1.93148467    -5.82692636    -0.27537582    -0.63265066    -1.40684016
O      -9.70804604     7.04107612    -9.71118792    -0.94062488    -0.85779034     0.49444142
O      -9.82706722     6.80893345    -5.95940950     0.00339787    -1.55254423    -0.53254632
O      -3.84204921     2.26481225    -3.97472629    -1.10313090     1.38683660    -0.05735768
O      -3.83154209     2.47696800    -8.04066215    -0.27022646     0.09273089     0.74280274
O      -7.84340667     2.40554459    -4.02215035     0.34034301     0.55363451    -0.02003121
O      -7.82862992     2.44551204    -8.04724090     0.65141911    -0.21847097     0.44925031
O      -3.84972201     6.34777022    -3.86346314     0.00787041    -0.02745716     0.30380329
O      -3.97701854     6.43685705    -7.95046138    -0.21577932    -0.85012301     0.66899896
O      -7.89679278     6.42262978    -3.87988433     0.12484895    -0.26873924    -0.53321462
O      -7.85513831     6.33943661    -7.88942450    -0.09979780     0.13282675    -0.20304908
O      -3.82096632     4.28387389    -2.00184431    -0.31969640     0.42423834    -0.79108416
O      -3.80234667     4.45336697    -5.85161805    -0.06188704    -0.29912878    -1.36197201
O      -7.86050946     4.34823209   -10.00122946    -0.02915283     0.60943516    -0.23955381
O      -7.80927518     4.47877448    -5.88858649    -0.32247008    -0.31859737    -2.05795597
O      -3.93702018     0.12499943    -2.18753109    -0.51127983    -0.81255869     0.12216760
O      -7.92610853     8.52565600    -6.06085625    -0.40806104     0.89878298    -0.18365439
O      -7.63890691     0.07977356    -6.16957272     0.96550896    -0.43078605     0.07320364
O      -7.77304562     0.04588330   -10.09614844    -0.80911829     0.17949614    -0.07651019
O      -1.92059254     4.09643260    -4.05492177    -0.58093536     0.50114262     0.31100798
O      -9.83459085     4.65019780    -4.08544774    -1.11945923     0.61620434     0.37971842
O      -5.94993540     4.47721204    -4.11720567     1.30575597    -0.36222248     0.56498362
O      -5.91568255     4.39130255    -7.93082381     1.48499288    -0.62652911    -0.17468232
O      -1.85827049     0.24130274    -4.10851052     0.09127401    -0.16550580     1.69782764
O      -5.95394487     8.49413081    -8.11361232     0.13698176     0.75033381     0.66057917
O      -9.76200802     8.45138319    -4.06577576    -0.34878466     0.08632189    -0.60587865
O      -5.74624113     0.49280172    -8.22873253    -0.14601404     0.38313385     0.48140520
