# total energy = -630.68827540 eV

CRYSTAL
PRIMVEC
        0.00285542     0.02004370    -7.95977623
       -7.82940539     0.00763210    -3.98158109
       -3.91729101     8.74642787     0.01461334
PRIMCOORD
56 1
Li     -4.11893990     2.18437396    -1.91114599     0.99629263     0.30921443    -0.33482167
Li     -3.74478359     1.78673021    -6.22228116    -1.04020649     0.35365159     0.60724642
Li     -7.79475772     2.50901784    -9.88265003    -0.26156723    -0.16942579    -0.32155093
Li     -7.79034804     1.98064269    -5.88746905     0.26912075     0.38640490     0.10056027
Li     -3.88273379     6.45312564    -1.96897991    -0.58358351    -0.14688384     0.17168374
Li     -3.82102772     6.59129572    -6.04644795    -0.15645290    -0.13843596     1.10785763
Li     -7.92636138     6.43536713    -9.89502392     0.34924409     0.16866971    -0.01711795
Li     -7.91330623     6.62571425    -5.90962792     0.19667352    -0.30622181     0.41414013
Ti     -1.99170551     2.23240225    -3.97795767     0.16911144     0.71280697    -0.03323203
Ti     -5.92194846     6.75866826    -7.83976577     1.66450897     0.21363909    -0.83947265
Ti     -7.83539382     4.43143544    -7.68078496     0.00338011    -2.33313443     0.26823454
Ti     -7.73664938     4.40893020    -3.81357788    -0.87668266    -1.38006886    -0.00357647
Ti     -3.89512659     4.28129112    -7.74379745     0.17179032     0.51998955     0.04237461
Ti     -3.97594086     4.41435659    -3.94602077     0.22238028    -0.14067744     2.41492666
Ti     -2.09031408     0.01375547    -2.14527363    -1.19489432    -1.02308195     0.28176515
Ni     -5.89511500     2.32783792    -7.93622199    -0.06613640     1.67826330    -0.30508472
Ni     -5.82919467     2.28928667    -4.07268524    -0.00149518    -0.65657478     0.30869080
Ni     -9.85825861     6.55815016    -7.83837148    -0.01226194    -0.14505071     0.56631266
Ni     -9.74826376     6.21351506    -3.99442869    -1.01100068     0.10739564    -0.69143948
Ni     -1.91405478     2.16578339    -7.95738250     0.52680636     0.54043740    -0.05905527
Ni     -5.86920761     6.51739826    -3.96511957    -0.13759632     0.72346154    -0.15292789
Ni     -5.84482021     8.75791632    -5.93904837    -0.11580223    -0.83687286     0.17571448
Mo     -5.98203540     0.10324176   -10.15030419     1.03258339     0.44825593    -1.82332582
Mo     -9.75836589     8.74760865    -6.30242362    -0.88529268    -1.64090296     0.95559163
O      -1.80706465     1.90940147    -1.90270073    -1.11060003    -0.28081377    -0.81010292
O      -1.98421680     1.83581225    -5.95973537     0.99099186     0.16281548    -0.36269691
O      -5.92070741     6.82525211    -2.06256238     0.41843132    -0.20634415     0.68699513
O      -5.83032442     6.83471749    -5.93950675    -0.53747254     0.40331532     0.58705697
O      -5.92230510     2.04409757    -9.91022210     0.02761252     0.68561515    -0.64994826
O      -5.73543671     1.98317749    -5.93899983    -0.45941457    -0.11416362    -0.67472244
O      -9.71838598     7.10202828    -9.67121054    -0.31870205    -1.88889074     0.29378410
O      -9.85266498     6.74526056    -5.89039359     0.41884783     1.07315300    -0.43969061
O      -3.88741011     2.36140365    -4.04312686    -0.18355157     0.18912424     0.42205745
O      -3.99007353     2.34924436    -8.01110933     0.93478478     0.81445697     0.36844877
O      -7.72975512     2.37925013    -3.95108610    -0.54085018     0.54566456    -0.22024548
O      -7.85997610     2.40973386    -7.92418958     0.16734737     0.23685515    -0.08122753
O      -3.94707337     6.37931842    -4.03402637     0.61279914     0.11707574     0.04606810
O      -3.98701089     6.43652521    -7.81992721     0.33874930    -1.18126580    -1.43075349
O      -7.85647559     6.30020882    -3.90716791     0.22218529     0.90331038    -0.73209964
O      -7.80521374     6.25773883    -7.87318343    -0.32607515     2.45534964    -0.58741396
O      -3.99589648     4.49099730    -2.10011797     0.08263128    -0.25300775    -0.95710828
O      -3.61019951     4.44934396    -5.99720678    -0.38035195     0.28832574    -0.28681607
O      -8.00782833     4.47851219    -9.99509738     0.42401213    -0.39900139     0.20956155
O      -8.14776056     4.51573468    -5.97309404     1.25640560    -0.09436781     0.58722386
O      -7.90470267     8.76671122    -9.88346155     0.66998429     1.04096413    -0.70129310
O      -7.94258959     8.59058422    -6.09636716    -0.03577270     0.26762538     0.37199082
O      -7.64057379     0.02961364    -6.00603157    -0.41255677    -0.35994776    -0.35104886
O     -11.61837023     8.75397820    -9.88758032    -1.44493787     0.11659973    -0.12540453
O      -1.98974075     4.16611807    -3.87722810    -0.02456907    -0.92570689    -0.91506359
O      -1.93400033     4.24135668    -0.14055253    -0.52267304    -0.14885809     0.18164845
O      -5.86693035     4.25264722    -4.28754505    -0.06753216    -0.29439650     0.44023514
O      -5.84703163     4.30964753    -7.90191496    -0.53214861    -0.09433572     0.24827281
O      -2.01329677     0.15901340    -3.99141351     0.22568644     0.85700444     0.06132027
O      -5.96508152     8.57601837    -7.98018248     0.47623415    -0.09864877     0.33373439
O      -5.94399385     0.24964799    -4.05081452     0.64561543     0.47550895     1.16101841
O      -5.84548029     0.57172778    -8.07337051    -0.18411254    -1.03675169     0.40341266
