# total energy = -630.29369961 eV

CRYSTAL
PRIMVEC
        0.00279571     0.02951795    -7.98606283
       -7.83802570     0.01298533    -3.99532603
       -3.92160916     8.71933433     0.00634407
PRIMCOORD
56 1
Li     -3.99410414     2.26935007    -2.03398452     0.18028698     0.19974284     0.21663780
Li     -3.88759912     2.21839684    -6.00026641    -0.28402427     0.11859880    -0.02367073
Li     -7.84623258     2.10769201   -10.08688083    -0.19805891    -0.12946929     0.46011128
Li     -7.82984622     2.56938709    -6.11935396     0.06987864    -0.61251229     0.75622994
Li     -4.01795335     6.43463771    -2.01897520     0.82930187    -0.12694814     0.36954415
Li     -3.91549340     6.65617698    -5.76693253    -0.27647957    -0.06297531    -1.16462920
Li     -7.63520797     6.44173450    -9.96467321    -0.66672184     0.27824839    -0.32030482
Li     -7.84811953     6.23006190    -5.91719461    -0.22831939     0.54737087     0.47674185
Ti     -1.99597031     2.19934842    -4.02044853     0.71166594     0.81081467    -0.10744608
Ti     -5.87868166     6.60212636    -7.82804719     0.54724447     0.35886099    -0.66308117
Ti     -7.84539391     4.47779734    -7.92353211    -0.92004057    -0.79550315    -0.57622052
Ti     -7.90120917     4.31383023    -3.71743855     0.28732997     1.00346620    -0.57126691
Ti     -3.90819725     4.31396268    -7.76481975    -0.40237048     1.48688420     0.55969352
Ti     -4.10801734     4.43239598    -3.79502613     0.50253303    -1.64491669    -0.88614390
Ti     -1.76953287     0.03450979    -1.90358866    -0.04990354    -0.38339390    -0.19951679
Ni     -5.89092383     2.19600283    -8.09952902    -0.72898878     0.70341851     1.11250674
Ni     -5.87191355     2.20000065    -4.15787083    -0.85139977    -0.51754281     0.41482306
Ni     -9.85762189     6.55206208    -7.97660141     0.16675484     0.18521047     0.17965177
Ni     -9.87815220     6.48054858    -4.00041243     0.16421564    -0.38986259     0.43404225
Ni     -2.02915123     2.24175141    -8.02127886    -0.12933806     0.17650462     0.97231006
Ni     -5.88741202     6.79736187    -3.89015271    -0.73315751    -0.51701349    -0.66560846
Ni     -1.85595242     0.03198827    -5.96385500    -0.76086332    -1.08238185     0.26745674
Mo     -5.84256646     0.04855940   -10.25466475    -1.20311146    -0.91763929    -1.27416900
Mo     -9.71451860     8.62812814    -6.24443052    -1.10081227    -1.17328917    -0.55354712
O      -1.94923926     1.99540232    -1.86525766    -0.41242701    -0.68526644    -1.17601125
O      -1.99981001     1.83601667    -5.94034939     0.58359468     0.25720303    -1.22850342
O      -5.75642683     6.77320647    -1.93029824    -1.80318819     0.64599636    -0.66487640
O      -5.94183661     6.84360369    -5.92554708     0.21461100     0.58137217     1.06182958
O      -5.93590994     1.98095106    -9.99704407     0.61086700     0.36382705    -0.23233482
O      -5.99699556     1.87555514    -6.10475000     0.61714287     0.71718458     0.38950851
O      -9.91639951     6.95056130    -9.85302512     0.67016866    -1.16378297     0.20692123
O      -9.84463382     6.68766653    -6.04568593    -0.25094832     0.02070179     0.43017264
O      -3.86355669     2.38003403    -4.06567712    -1.44959164     0.03066933     0.41242937
O      -4.00696727     2.40383547    -7.95061898     0.46312137    -0.15815131    -0.39518616
O      -8.00108296     2.38712941    -3.97984149     0.81288924     0.30813519    -0.27913359
O      -7.77876071     2.47286289    -8.00186008    -0.12884400    -0.34053902    -0.88466279
O      -3.98303781     6.26545072    -4.03282720     0.43204145     1.58677623     0.96024872
O      -3.99780395     6.38723246    -7.90766632     1.00501514    -0.12713741    -0.28178737
O      -7.95882229     6.37418736    -3.88937399     0.55225730    -0.68999004    -0.74273275
O      -7.92020757     6.47343946    -8.11519992     0.11030628    -0.71181089     1.22968425
O      -4.03760261     4.36109098    -2.05239368     0.58406850    -0.16204461     0.77176034
O      -3.70824774     4.43806949    -6.03304725    -0.85650693    -0.51893385     0.25782079
O      -7.85328111     4.50655200    -9.97158692     0.53537267    -0.50254053     0.11110016
O      -7.83780622     4.38287087    -6.19215492    -0.23929846     0.70492686     1.87179581
O      -8.00961756     8.59646677    -2.11013775     1.14483078     0.68873282     0.12680860
O      -8.04080404     8.58160921    -5.94595461     1.77132329     0.42348853     0.24333543
O      -3.93813710     8.55924934    -2.08776737     1.24472944     0.37781481     0.33361841
O     -11.66471110     8.66319865   -10.08331450     0.08310445     0.81645529     0.52774314
O      -1.95673093     4.09862756    -4.12640942    -0.37996663     0.40388372     0.47576509
O      -9.80524012     4.43323458   -11.94072485     0.08292968     0.27599141    -1.07695976
O      -5.94142002     4.08749934    -4.11303564    -0.38207005    -0.19261124    -0.19393537
O      -5.87689937     4.64995557    -7.93175494     0.07251954    -0.59078801    -0.37333302
O      -1.88848640     0.30781299    -3.94015480    -0.28926675    -1.00055223     0.34220464
O      -5.96493409     8.52256800    -7.87361963     0.14791616     0.48655985    -0.97603639
O      -5.93805690     0.24148941    -4.13442455    -0.03719231     0.72567611     0.13250717
O      -5.74830326     0.37986679    -8.03533956    -0.72739803    -0.30048257    -0.66437294
