# total energy = -630.25536323 eV

CRYSTAL
PRIMVEC
        0.00285542     0.02004370    -7.95977623
       -7.82940539     0.00763210    -3.98158109
       -3.91729101     8.74642787     0.01461334
PRIMCOORD
56 1
Li     -3.98157751     2.00735438    -2.03997792    -0.02999035     0.59426242     0.62819472
Li     -4.09775776     1.95701617    -5.86347979     0.36364364     0.20383341    -1.11924559
Li     -7.81115787     1.91334742    -9.95248226    -0.81760632     0.24576959     0.10200663
Li     -7.76070466     2.44822710    -5.91342927    -0.52724189    -0.04774190    -0.07064799
Li     -3.95782914     6.57407790    -1.98261160     0.23766416    -0.00691299     0.36266201
Li     -3.78844740     6.40208883    -5.67666474    -0.16617994     0.25483007    -0.77190766
Li     -7.73013068     6.41122318    -9.70209725    -0.38255484     0.47170514    -0.94452701
Li     -7.92111872     6.46230133    -5.96976375     0.33104504    -0.25894934     0.44948668
Ti     -2.07471798     2.31770054    -4.09476354     1.78713977    -0.57587861    -0.57957756
Ti     -5.75917864     6.87137227    -7.87447828    -0.93217251    -0.78454806    -0.23283797
Ti     -7.74357752     4.35451171    -7.82172101     0.80530011    -0.50397881    -0.41322457
Ti     -7.69696777     4.41472909    -3.62070293    -1.24230436    -0.30632572    -0.19948684
Ti     -3.84688534     4.35093423    -7.67488382    -0.21820579    -1.10281188     1.17657760
Ti     -3.93230034     4.44876901    -3.66359689    -1.02602724    -0.07620354    -1.65576118
Ti     -2.02612431     0.03677532    -2.34138036     0.52091660    -1.27626361     1.46519054
Ni     -5.79938544     2.36565782    -8.03337073    -2.32702421     0.83356437     0.04411326
Ni     -5.88703181     2.18737593    -4.02317055    -1.38814247     1.66841067    -1.09595782
Ni     -9.74180415     6.68098797    -7.82818698    -0.18605051    -1.11500425    -1.11158495
Ni     -9.85881450     6.27577670    -3.92248481     1.42952902     0.59591913    -0.20629572
Ni     -1.89098481     2.28943516    -7.93765538    -0.77514488    -0.19987687    -0.45609041
Ni     -5.90948043     6.50008096    -3.97352375    -0.09987446     0.55797080     0.18246015
Ni     -5.98830268     8.71624824    -6.02178281     0.06386926     0.16742409     1.45167662
Mo     -5.90410513     0.02977406   -10.11731221    -0.94263733    -2.30501003    -0.85908326
Mo     -9.83360467     8.68079122    -6.36162237    -0.60953264     0.23283967     1.16771366
O      -1.94926431     1.91647482    -2.02237605    -0.49143419    -0.50456703    -0.35199925
O      -2.03998573     1.83445271    -6.04075180     0.37752867     0.10675142     0.26849772
O      -5.80999588     6.81058276    -1.93685906    -0.91771842     0.80589262    -0.40738908
O      -6.03424020     6.85213652    -5.92264112     1.12587769    -0.04100476     0.29890140
O      -6.02630153     2.04366023   -10.07155221     2.21850861     0.07785525     0.80868595
O      -5.98993228     1.92571461    -6.05361658     0.86038953     0.17514290     0.86412008
O      -9.67261244     6.78913474    -9.89602313    -0.91030890     0.51629955     0.54768047
O      -9.78088083     6.79039266    -5.96121040    -0.69582361    -0.20104568     0.55787567
O      -3.96155002     2.44199091    -4.12342653     0.31335726    -0.34965318     1.46912530
O      -3.99169777     2.34692183    -7.90325502     1.70589712     1.02690778    -0.17124675
O      -7.82970541     2.45613362    -3.92609259    -0.48795212    -0.36667482    -0.19050245
O      -7.84773485     2.28514377    -7.99127119    -0.30636592     1.75637680    -0.23887547
O      -3.91398208     6.38753009    -3.84913828     0.18334163    -0.24014170    -0.28882031
O      -3.94279652     6.31197230    -7.96574064     0.38497746     0.58699784     0.38758083
O      -7.86403472     6.30708478    -3.95708253    -0.22106133    -0.09395401     0.11897680
O      -7.78109486     6.35808722    -7.89326290     0.15310724     0.63622535    -0.05048610
O      -4.09375809     4.31162372    -1.96155402     0.42540881    -0.01203593     0.51831138
O      -3.89353667     4.49907752    -5.89884395     0.15850388    -0.05214608    -0.67474197
O      -7.61311123     4.54480322    -9.81770438    -0.75927406    -0.27583775    -0.66167331
O      -7.94273075     4.47173961    -6.12568188     0.17624290    -0.32068523     1.82720258
O      -7.96274568     8.70041541    -9.87550407     1.76102096     0.88596598    -0.55141900
O      -8.06041586     8.72353165    -5.98161885    -0.44252591     0.19787932    -0.15942090
O      -3.86825321     8.64023209    -2.09649357    -0.11805153     0.15377227    -0.15053641
O     -11.60267798     8.67226324    -9.86907327    -0.13742074    -0.49521969     0.24272270
O      -1.98948467     4.14682693    -3.96060416    -0.15576143     0.53141746    -0.24646640
O      -1.90936864     4.21457286    -0.09324649     0.15734044     0.31097475     0.61704656
O      -5.96427546     4.04495336    -4.10636514     2.16221817     0.78788479     0.03490448
O      -5.75686553     4.32533085    -7.90708418    -1.18029491    -0.73057786     0.03310640
O      -2.10356919     0.25828775    -4.11024776    -0.09132911    -0.17009561    -0.45052417
O      -5.78271449     8.68162256    -7.85536711    -0.05414484    -0.23050390    -0.50330707
O      -5.99931959     0.40028248    -3.94073607     0.60057410    -1.30012215    -0.44973592
O      -5.87868183     0.57193990    -8.11748966     0.30408710    -0.62312530    -0.33258170
