# total energy = -631.43507070 eV

CRYSTAL
PRIMVEC
        0.00279571     0.02951795    -7.98606283
       -7.83802570     0.01298533    -3.99532603
       -3.92160916     8.71933433     0.00634407
PRIMCOORD
56 1
Li     -3.88148429     2.09036193    -2.02102989    -0.27839445     0.44257096     0.25779146
Li     -3.90577176     2.04582701    -6.03599011    -0.04619977     0.06003480    -0.10498878
Li     -7.81709211     2.34584077    -9.99504829     0.07625356    -0.14956385    -0.04417488
Li     -7.85779466     2.20358714    -6.02859722    -0.04935809    -0.11528175     0.35585080
Li     -3.85392755     6.48320425    -1.91741356    -0.46593197    -0.07308837    -0.04483228
Li     -3.88210458     6.59062115    -5.89311896    -0.21223794    -0.38265685     0.01930784
Li     -7.92563693     6.21434115    -9.82822865     0.35108887     0.39808977    -0.48138770
Li     -7.95238399     6.44263531    -5.87492727     0.48386893     0.18537130     0.20722864
Ti     -2.01233670     2.30007760    -4.08610132     0.56000540    -0.80851502     0.05055855
Ti     -5.93174185     6.69794088    -7.89187478     0.53271424     0.36128976    -0.42606393
Ti     -7.86941676     4.36619942    -7.68754447     0.94062040    -0.70459293     0.07552801
Ti     -7.86816009     4.35452117    -3.78047325     1.29998601     0.27294489     0.29786781
Ti     -3.76746014     4.39348590    -7.73059984    -0.62595229    -0.13780130     1.40273244
Ti     -4.07800729     4.39770067    -3.79786066    -0.81858129     0.10200204     0.17168346
Ti     -6.03315504     8.70201150    -2.13092924     0.36864899     0.11901729    -0.45908135
Ni     -5.79734335     2.42932446    -8.00072761    -0.21199601    -0.53181736    -0.56964516
Ni     -5.88131828     2.12958261    -4.13435571    -0.31949527     0.57250262     1.04184790
Ni     -9.81494411     6.48392557    -7.87718141    -0.64520999     0.28043205    -1.05264078
Ni     -9.76071854     6.48186863    -3.95045526     0.19900947     0.46212453    -0.00511388
Ni     -1.96165550     2.16970632    -8.04094535     1.06154481    -0.16436183     0.13917808
Ni     -5.90114357     6.71234563    -3.93532793    -0.11227624    -0.64919891    -0.04895340
Ni     -5.91387990     8.71042024    -5.91985662    -0.17955648     0.35508818    -0.53645029
Mo     -9.88408819     8.72087051   -10.21901374    -0.36395399    -0.04133162     0.70965533
Mo     -9.81041154     8.71108096    -6.36396661     0.15274964     0.10037403    -1.13180704
O      -1.99170017     1.97707086    -2.01789396     0.21008646    -0.99846542     0.01872950
O      -1.94869298     1.78679053    -6.01830040     0.04182590     1.19684445    -0.48440815
O      -5.87988121     6.75145189    -1.95631653    -0.01095496     0.24076864     0.00645941
O      -5.94865444     6.91648575    -5.84066537     0.22403098    -0.99989929    -0.36494608
O      -5.78161558     1.94185477   -10.13677643    -0.62002595     0.08912915    -0.25059650
O      -5.88270386     1.95993174    -5.96559704     0.23886802     0.20001702    -0.29736984
O      -9.72567041     6.83501693    -9.81826375    -0.39332185     0.65813591     0.32639993
O      -9.79449292     6.83222582    -6.09449863    -0.45143610    -0.84418392     1.67321750
O      -3.91976316     2.37426018    -4.05778750    -0.10475434    -0.10939590    -0.22879454
O      -3.77497510     2.43943688    -7.99151864    -1.28579524     0.82780445     0.24149151
O      -7.89469948     2.42019750    -4.09967417     0.08410311    -0.79834509     0.70483212
O      -7.85002163     2.35810899    -7.96185449     0.71396880     1.25113837    -0.33652572
O      -3.95788530     6.34551438    -4.00259083     0.46453069    -0.02481554     0.70664455
O      -3.98295374     6.36854192    -7.90054989     0.29128095     0.06455254    -0.26885486
O      -7.81482000     6.42124170    -3.94144803    -0.08942959    -1.06194745     0.18146941
O      -7.90183321     6.35289458    -7.88359375     0.72017187    -0.56152372    -0.12071694
O      -3.92338845     4.29750028    -2.04276504     0.26304064     0.49458498    -0.21561198
O      -3.74282516     4.46803552    -5.92372874    -0.16120030    -0.38746255    -1.68816328
O      -7.92215994     4.29823814    -9.98905536     0.14356233     0.14389135     0.42933547
O      -8.05443606     4.29337945    -5.94280504     0.72487263     0.54272420    -1.16006511
O      -7.83215856     8.67679123    -2.10386343    -0.09666309     0.37197456     0.19851213
O      -7.97422946     8.69771240    -6.09201955    -0.60516061     0.19321991     0.47952179
O     -11.64731519     8.73576815    -5.96004268     1.04758412    -0.14142515    -0.49728183
O     -11.67435285     8.70799428   -10.06011622     1.13426083    -0.13204801    -0.15172012
O      -1.93793257     4.16615454    -4.06555947    -0.66388307     0.42467392     0.12102263
O      -9.68447318     4.55091170    -4.09059452    -2.94595171     0.72707143     0.01180776
O      -5.99918264     4.13983813    -4.09470074     1.98902574    -0.07358215    -0.17366262
O      -5.83595243     4.38753985    -7.96657030    -0.36144058    -0.23437184     0.33461756
O      -1.76460278     0.31139805    -4.06262787    -0.78737453    -0.79159725     1.39284041
O      -5.99967199     8.51946341    -7.94844722     0.36317802    -0.51773405    -0.13987965
O      -9.65891746     8.70344150    -4.02103436    -0.64193220     0.30801287    -0.46973583
O      -5.68367948     0.59204255    -8.14658835    -0.98007128    -0.17526010     0.22665456
