# total energy = -631.05132843 eV

CRYSTAL
PRIMVEC
        0.00279571     0.02951795    -7.98606283
       -7.83802570     0.01298533    -3.99532603
       -3.92160916     8.71933433     0.00634407
PRIMCOORD
56 1
Li     -4.04497427     2.20309600    -1.94796505     0.14933797     0.27455632     0.29882755
Li     -3.86354299     2.34115540    -6.00356277    -0.68797028     0.20421457    -0.04081427
Li     -7.89420116     1.97195529    -9.96850858     0.31987028     0.90323344     0.15830426
Li     -7.93754269     2.49528610    -5.79615491     0.39731262    -0.20834333    -0.66823377
Li     -3.86624427     6.58908111    -1.95335860    -0.15855059    -0.20135402     0.05510912
Li     -3.89515617     6.72636246    -6.06654906    -0.41599706    -0.38310873     0.36155413
Li     -7.93798979     6.61275320   -10.01360208     0.66896546    -0.12301144     0.35173291
Li     -7.79313541     6.57177871    -5.87657655    -0.06939768    -0.32411259     0.18276079
Ti     -2.02331651     2.18685095    -4.02832191     0.97112426     0.77857308     0.10950642
Ti     -5.98707343     6.56047792    -7.99238657     1.05660177    -0.05193609    -0.21467314
Ti     -7.86248051     4.37855575    -7.74324434    -0.14641683     0.31100365    -0.09629258
Ti     -7.87800023     4.33325240    -3.63442456     0.50581308     0.32404381    -0.22725617
Ti     -3.80260436     4.44523430    -7.74264754    -0.68058124     0.19006658    -1.42266000
Ti     -4.11132006     4.40573878    -3.75346839     0.15458207     0.96255924    -0.24939192
Ti     -1.83697981     0.06815993    -2.08423954     1.08724706    -1.29324454     0.65387962
Ni     -5.91579242     2.20993121    -7.84378815     0.65570858     0.42028861    -0.81013828
Ni     -5.95728670     2.08547464    -3.90302717     0.26959815     0.04162966    -0.85970474
Ni     -9.89355156     6.43387231    -7.98601770     0.69909088    -0.09711850    -0.75814971
Ni     -9.69481648     6.69909759    -3.99563314    -0.93351474    -0.63203489    -0.04650610
Ni     -1.96960306     2.07586675    -7.96565072    -0.59740457     0.55715548    -0.33043137
Ni     -5.75749192     6.59940559    -3.96400701    -2.28922196     0.22032056    -0.75520809
Ni     -1.94685307     0.11816399    -6.02400254    -0.24337955    -1.48421617    -0.27672874
Mo     -9.81796249     8.69537705   -10.29549811     0.06030107     0.51427451     1.21209211
Mo     -5.79879541     0.08043002    -6.38261870    -1.09589059     0.65052832    -0.22517022
O      -2.04953257     1.91862176    -1.98153790     0.08247775     0.92347863     0.30134777
O      -2.03706955     1.97473477    -5.96692935     0.88999659    -0.46106225    -0.82031024
O      -5.87294489     6.77076617    -2.13717245     0.09730256     1.16939348     0.97687760
O      -5.82146416     6.90784976    -6.01272275    -0.59403796     0.98052102     0.14459384
O      -5.95148932     1.83665988    -9.78847074     0.30562535     0.44165134     0.12385988
O      -5.85609187     1.98313118    -5.99168312    -0.19827863    -0.34287771     0.25144555
O      -9.80928233     6.71996429   -10.07034656    -0.17873221     0.67085998    -0.39381759
O      -9.79022215     6.88517233    -5.82759585     0.52948170    -0.12824060    -0.91964173
O      -3.84013873     2.52070197    -4.04117092    -1.09166577    -1.44469631     0.42636916
O      -4.03049174     2.48788895    -7.97239177    -0.11329145    -0.50943472     0.15308248
O      -7.86585922     2.32598333    -3.98593121    -0.38059050     0.06252322     0.77318356
O      -7.84925849     2.44051162    -7.87527356    -0.35261569    -0.13089750    -0.11814859
O      -3.96735232     6.40731064    -3.97715956     1.17466996    -1.09359193    -0.02876585
O      -3.97220712     6.41700273    -8.01349641     0.53603282    -0.15279580     0.08631483
O      -7.71839754     6.32951503    -3.85718162    -0.28665210    -0.51285871    -1.02140214
O      -7.93185105     6.41975943    -8.02637920     0.22749653    -0.45571285     0.39172934
O      -4.10787947     4.39499197    -2.01558549     0.54884978     0.04209125     0.24584100
O      -3.95197085     4.48980106    -6.03220693    -0.19978611    -0.11980584     1.19888928
O      -7.67382203     4.33422910    -9.87880926    -0.66956863     0.09094480    -0.60705870
O      -7.74097772     4.47450398    -5.98236412    -0.12141862     0.02878247    -0.15930770
O      -4.07356240     0.05017890    -2.26042999    -0.25407630    -0.33415760     0.77312323
O      -4.03253518     0.14159206    -6.23351133     0.89705868    -0.33836852     0.53370391
O      -7.71297505     0.13249871    -6.06649607    -1.06636621    -0.34335712    -0.47126191
O      -7.76381609     0.16332451   -10.07074411    -0.30326007    -1.45711808    -0.07597560
O      -1.98420009     4.36674417    -4.06930048    -0.12191621     0.33921427     0.54782217
O      -1.93794178     4.16935520    -0.06201746     0.50446924    -0.25213995     0.32598807
O      -5.94436475     3.89817531    -4.01487822    -0.33324010     0.65845031    -0.03862645
O      -5.89610088     4.65623538    -8.08697806    -0.05684808     0.70329727     0.73393894
O      -2.03971492     0.34026601    -4.00018301     0.21495592    -0.43762069    -0.25056620
O      -5.94296834     8.58452122    -8.15081990     0.00989334     0.20547695     0.09946353
O      -5.98116184     0.05345634    -4.13981346     0.37560149     0.59872095    -0.47273356
O      -9.89541808     8.27062244    -8.16140958     0.22692196    -0.48074433     0.85947621
