# total energy = -630.67253947 eV

CRYSTAL
PRIMVEC
        0.00279571     0.02951795    -7.98606283
       -7.83802570     0.01298533    -3.99532603
       -3.92160916     8.71933433     0.00634407
PRIMCOORD
56 1
Li     -3.83890247     2.38294281    -1.76134767    -0.31553448    -0.15176277    -0.50844266
Li     -3.96115142     2.15235923    -6.11300266     0.11417779     0.10054355     1.64667175
Li     -7.73622435     2.23335420    -9.98498629    -0.65062336     0.29949216    -0.00969040
Li     -7.83753187     2.40293273    -5.87935097    -0.23755939    -0.40431443    -0.23568020
Li     -3.95590477     6.52359311    -2.02180313     0.45828223     0.01653254     0.39902039
Li     -3.77538742     6.55821300    -5.81052569    -0.89343933     0.04858989    -0.13201737
Li     -8.02924584     6.40238769    -9.98015704     0.15255872     0.13840397     0.25169963
Li     -7.86844735     6.41615559    -5.94463197     0.25581691    -0.11618802     0.23167096
Ti     -1.98289158     2.19284643    -4.11736647    -0.73381242    -0.39147221     0.12254090
Ti     -5.95648690     6.47809128    -8.21213993     0.41901679     0.54211249     0.75711356
Ti     -7.94933976     4.33538406    -7.70847690    -0.22804841     0.71632301     0.03036035
Ti     -7.95893310     4.38011257    -3.70383404    -0.54546965    -0.61159611    -0.49984117
Ti     -3.87389858     4.43677879    -7.65758871     0.86023336    -0.19205798     0.25270632
Ti     -4.07901917     4.39399730    -3.70955205    -0.30631635    -0.01589488    -0.94349182
Ti     -5.75557933     8.68720569    -2.08808080     0.00556745     0.06743823    -0.17947872
Ni     -5.78515887     2.44426023    -7.97874101    -0.51415418    -0.73224536    -0.43063232
Ni     -5.89123162     2.07966596    -3.97943316    -0.79254198     0.90131822    -0.60404866
Ni     -9.86276357     6.61858339    -7.87804582     0.23840211    -0.03159967    -0.40852943
Ni     -9.80454585     6.65186847    -3.94236233    -0.54467455    -1.02152465    -0.71169477
Ni     -1.94423554     1.88853987    -7.92717629     0.46010727     1.17716501    -0.94103843
Ni     -5.97421437     6.49396109    -4.03961548     0.79194678     0.18914484    -0.16718040
Ni     -5.83922265     8.68436482    -6.03292123     0.07355083    -0.05191515     1.03074916
Mo     -5.88939460     0.17648503   -10.31074900     1.93346472     0.21151982     1.03740772
Mo     -9.60376410     8.72607500    -6.33783451    -2.02173219    -1.11020808    -0.59178713
O      -2.07020155     1.82132036    -1.94199797     1.02397246     0.68346476     0.37763351
O      -1.98912441     1.83525036    -6.07257604     0.67299655    -0.11880202     0.67813786
O      -5.99265139     6.63931022    -2.08903695    -0.02921060     0.19558943     0.06582786
O      -5.83660993     6.90617325    -5.88779708    -0.29367585    -1.00554681     0.13980434
O      -5.91740108     2.14732551   -10.10894834     0.83440617    -0.22330387     0.70890848
O      -5.97681011     1.81917926    -5.87520122     0.62024272     1.03993494     0.31525954
O      -9.83075422     6.94906253    -9.96258060     0.53953500    -0.62229138     1.03400622
O      -9.77295660     6.83376831    -5.97694520    -0.10250404     0.28958355    -0.21829197
O      -3.99994982     2.46347070    -3.95315739     0.81734345    -0.95869084    -0.78949894
O      -3.82974666     2.35923172    -7.80912519    -0.66888545     1.80067844    -1.53576530
O      -7.83097633     2.48622084    -4.04023365    -0.33869405    -1.65269958     0.78694629
O      -7.74098131     2.44597787    -8.01915286    -1.08355617    -0.17546584     0.43326587
O      -3.91898450     6.32836724    -3.85583467     0.00896995     0.51684399    -0.86690208
O      -3.99372526     6.41177232    -8.05613084    -0.41220560    -0.48499552     0.49790535
O      -7.84424326     6.31495362    -3.92640797    -0.51927544     0.97259825    -0.57884148
O      -7.92333479     6.34379939    -8.01695123     0.00169605    -0.71969649     0.55242908
O      -3.75096765     4.38718534    -2.00153790    -0.66977599    -0.21861695     1.00149413
O      -3.68846198     4.54244644    -5.91266619    -0.75348983    -0.32981176    -0.43984370
O      -7.94064619     4.32508382    -9.93756824    -0.01367754     0.24742500     0.50392064
O      -8.14419431     4.30588739    -5.94985058     0.73266990     0.51432355    -1.04116556
O      -4.07134525     0.11549545    -2.08239225    -0.63580653    -0.43751188    -0.03768792
O      -7.89057698     8.72677844    -6.16826213     0.86074152    -0.19395291     0.61290393
O      -3.96722512     8.60279960    -2.05790136     0.45107945     0.06384246    -0.18645388
O     -11.55434348     8.75197214    -9.93186585    -1.76416721     0.59279058     0.11248574
O      -2.02678605     4.11263130    -4.06686989     0.50348826    -0.78738797     0.20342134
O      -9.86145722     4.71718101    -4.04685143     0.64120587     0.78158029     0.42163477
O      -6.02748792     4.47143912    -4.07858068     1.14201001     0.27266145     0.12785666
O      -5.87095119     4.42733047    -7.82141823    -0.29856328     0.03782704    -0.38763215
O      -2.05607574     0.23912081    -4.01761370     0.13149480     0.10643746    -0.44211180
O      -6.06621098     8.31435180    -8.06132454     0.68357649     0.61596651    -0.06026084
O      -9.92280457     8.61969527    -4.10870085     0.47075553    -0.59863053    -1.44740094
O      -5.78175545     0.56322650    -8.08243448    -0.48537819     0.44566650     0.24708380
