# total energy = -630.12611906 eV

CRYSTAL
PRIMVEC
        0.00285542     0.02004370    -7.95977623
       -7.82940539     0.00763210    -3.98158109
       -3.91729101     8.74642787     0.01461334
PRIMCOORD
56 1
Li     -3.89835678     2.37315630    -2.10448177    -0.05561090    -0.47365175     0.99627210
Li     -3.97112108     2.26813895    -5.92967927     0.09708778     0.18106444    -0.31511931
Li     -7.84986227     2.15360237    -9.89310662    -0.00031784    -0.26699845    -0.63473177
Li     -7.73811752     2.41386126    -5.97331085    -0.74486795    -0.42584672     0.66360388
Li     -4.01789238     6.35141576    -1.94372617     0.46137820     0.38333829     0.18312456
Li     -3.88932695     6.53660368    -5.83709755    -0.73891987    -0.17468242    -0.43134111
Li     -7.87484965     6.54548416    -9.78043928    -0.11493155     0.11416582    -0.15239829
Li     -7.85739899     6.39289359    -5.81721701    -0.42331124    -0.15790415    -0.09933349
Ti     -1.99137350     2.03612919    -4.09779954    -0.03297809     1.43239282     0.95554625
Ti     -6.00734122     6.65546439    -7.88494350     1.25373456     0.46238677    -0.35528918
Ti     -7.80706240     4.22517063    -7.74700005    -1.51397811     1.52628634    -0.27772487
Ti     -7.58976814     4.49416211    -3.54833541    -2.09510349    -0.59296099    -2.74736507
Ti     -3.91883877     4.35322487    -7.71699625     1.08507591     1.55351411     0.13447104
Ti     -3.97908999     4.39838071    -3.76400858     0.97411430    -0.16963789    -0.51198984
Ti     -5.73742559     8.66890963    -2.07340234     0.22726537     0.27769767     0.81174346
Ni     -5.93338285     2.48720707    -8.12612020     1.18249239    -1.95495939     0.22568646
Ni     -5.96142506     2.13892500    -4.10158487     0.70019268     0.19096554     1.07948665
Ni     -9.88300228     6.62117926    -7.90988665    -0.04813768    -0.23670454     1.28730209
Ni     -9.78341990     6.39780050    -3.79429131    -0.29434220     0.83841138    -1.06210996
Ni     -1.98509359     2.46061013    -8.02940569     0.56621016    -0.38293501    -0.24017255
Ni     -5.95712871     6.79419150    -3.98777012     1.59290515    -0.50873702    -0.20754316
Ni     -5.91111903     8.71444504    -6.04407808     0.40119662     0.36981423     0.37663746
Mo     -9.78423224     8.66741556   -10.13372616     1.04476790     0.57201341    -0.61406189
Mo     -5.77861826     0.03436288    -6.32325823    -0.20963502    -2.23736191     1.17665234
O      -1.91405793     1.84837112    -1.98419209    -0.15043111     0.24035633     0.14231309
O      -2.02469223     1.87373638    -5.99839762     0.32194748    -0.85697894    -0.98347137
O      -5.90532898     6.68461233    -2.10143453    -0.51901700     0.44855852     1.00366894
O      -5.83999926     6.87069324    -5.96178084    -0.67256557    -0.01987818     0.50194023
O      -5.92971759     1.91524301   -10.07724663     0.29525705     0.89092242    -0.74933958
O      -5.88795166     1.97784548    -5.99213513    -0.40702716     0.19090465     0.66201372
O      -9.90261781     6.69847201    -9.78403547     1.50355449     0.78706309    -0.40169478
O      -9.89385726     6.90156363    -5.91930515     0.86699857     0.06189713    -0.59487574
O      -3.83703713     2.33818654    -3.95084311    -1.85189189     0.00552424    -0.60949806
O      -3.95455248     2.48719780    -8.02983015     0.07803352    -0.26268776     0.01494898
O      -7.93742394     2.54818708    -3.90115624     0.14161373    -0.24418703    -0.13377971
O      -7.83699975     2.30857921    -7.94091718     0.63834038     0.34214789    -0.59426674
O      -3.99199407     6.36129205    -3.97334199     0.44099161    -0.32004443     0.38177616
O      -3.97078344     6.35053645    -7.90861860    -0.33619351    -0.22041069     0.02315431
O      -7.74781553     6.43584643    -3.88818464    -1.56125007    -0.55546043    -0.12128056
O      -7.91455391     6.31130164    -7.75246738     0.24843207     0.25586765    -1.08921693
O      -3.85318678     4.38523561    -1.99850871    -0.14558540    -0.03455615    -0.69250398
O      -3.94885922     4.39370368    -5.96103158     0.21830079    -0.29262908     0.36944569
O      -7.78861974     4.53188118    -9.81935492    -0.30772841    -0.20620530     1.84783326
O      -7.97451513     4.30757104    -6.02665272     0.65617461     0.46493573     0.62080075
O      -7.88179377     8.69928909    -9.79169092    -2.71855772    -0.53849281    -0.75340505
O      -7.91316911     8.74669406    -6.09165548    -0.86278563    -0.08046246    -0.30008124
O      -3.92914355     8.57512824    -2.01797834     1.35138316     0.89427972    -0.06205940
O     -11.60306181     8.70468828    -9.80279713     0.55576451    -0.06073669    -0.96830534
O      -1.97641009     3.94475697    -4.05214970    -0.12805487     0.87227270    -0.03781535
O      -9.67921162     4.56871437    -3.98595009    -0.56080600    -1.05511139     0.44403917
O      -5.88369449     4.07806020    -4.11930307     1.25219280    -0.31169493     0.35930905
O      -5.84418162     4.42235484    -8.07568055    -0.74617101    -0.22767609     0.43552666
O      -1.93967862     0.11862091    -3.98004984    -0.49639040    -0.09224625    -0.64970901
O      -5.98930952     8.49653226    -8.04727093     0.37041813    -1.00503559     0.78074985
O      -5.74751348     0.17916276    -4.10905776    -0.97289997     0.34371779     1.70161816
O      -5.92841564     0.61215593    -8.02742170     0.29669592     0.08864426    -0.83854855
