# total energy = -630.94919388 eV

CRYSTAL
PRIMVEC
        0.00279571     0.02951795    -7.98606283
       -7.83802570     0.01298533    -3.99532603
       -3.92160916     8.71933433     0.00634407
PRIMCOORD
56 1
Li     -3.95017462     2.39025561    -1.98307958     0.07705899     0.09620940     0.40629844
Li     -3.94173742     2.32847116    -6.05319115     0.14524372    -0.33813249     0.42237833
Li     -7.76946476     2.36054987    -9.96212187    -0.19012972     0.19576997     0.04879671
Li     -7.90780039     2.16230582    -5.92484049     0.74770076     0.11203783    -0.12818726
Li     -4.00336268     6.35327933    -2.15753019     0.62868593     0.55624085     0.86220802
Li     -3.99548806     6.44608005    -5.96079570     0.37337961     0.11900868     0.39166903
Li     -7.73870839     6.45319247   -10.07982729    -0.84779810    -0.02456641     0.34231077
Li     -7.90589665     6.69269447    -5.88829979     0.18949673    -0.26984755    -0.61063334
Ti     -2.00697124     2.17604381    -3.96987902     0.57632152     1.22229231    -0.74429592
Ti     -5.82923706     6.67951254    -7.92348199    -0.45850079     0.68078888     0.23753969
Ti     -7.83350896     4.43648459    -7.73491730    -0.10920051    -0.29953607     0.90701636
Ti     -7.93597777     4.42253197    -3.86127516     1.08847593    -0.65635509     0.07430811
Ti     -3.83090067     4.39853285    -7.69522359    -0.64948997    -0.51187709    -0.51535237
Ti     -3.97176886     4.45016674    -3.82319828     0.49606763    -0.58336222    -0.67432735
Ti     -6.08661048     8.62450565    -2.12737176     0.24962531     0.68975178    -0.16215888
Ni     -5.83121439     2.41877101    -8.00141143    -0.32928056     0.48097078    -0.04736376
Ni     -5.89514668     2.29349403    -4.03484975     0.81539075    -0.07985824    -0.36170200
Ni     -9.80112754     6.48182735    -8.09422697     0.59363332     0.09644747     0.92514261
Ni     -9.84097875     6.34544757    -4.05559309     0.44918373     0.54276395    -0.37157698
Ni     -1.78312080     2.13367660    -8.03647484    -1.65890249    -0.61484015     0.84472425
Ni     -5.90119824     6.39492035    -3.99808666     0.08377207     0.58914115    -0.47440783
Ni     -5.85516158     8.71575724    -5.90410478    -0.34114111     1.20775737     0.41060302
Mo     -5.96679052     0.08472036   -10.11968495     0.70796691    -1.52942927    -0.38445874
Mo     -9.82723179     8.71944644    -6.35489486     0.25728774    -1.13810669     0.32110157
O      -1.93629081     1.83270715    -1.95048363    -0.16229316    -0.06639634    -0.22141666
O      -1.88748391     1.86525555    -5.88608236    -0.08057096    -0.11330420    -0.87231658
O      -5.84569852     6.75402171    -1.92768554    -0.33154414    -0.62289232    -0.25415966
O      -5.89542390     6.90635293    -5.85523408     0.38811972    -0.73230103    -0.97850838
O      -5.82874230     2.08283749   -10.04249825    -0.03437490     0.19345393     0.17933968
O      -5.86413881     2.06155245    -6.02461318    -0.18610745    -1.11754391     0.89037982
O      -9.84206919     6.80124257   -10.10503463     0.07965025     0.87191922     0.30891924
O      -9.81486407     6.70932987    -6.08025151    -0.52982924     1.21125085     0.14975758
O      -3.85180783     2.34442105    -3.97112411    -0.80758485     0.65109315    -0.18448670
O      -4.00941689     2.48737835    -7.98493646     0.71226688     0.04096601    -0.06653996
O      -7.75488308     2.32842612    -4.01590697    -0.06427896     0.87975003     0.11058722
O      -7.73135800     2.53014319    -7.82457742    -0.78621691    -0.84571204    -1.21670495
O      -3.82955614     6.41032433    -4.03605839    -0.64029240    -0.87304981    -0.04876170
O      -3.90672132     6.36243031    -7.98335989    -0.41947617    -0.04236116    -0.03630070
O      -7.91828868     6.37402795    -4.12616119     0.06997309    -0.75163354     1.76778773
O      -7.80268089     6.37452610    -7.92285865     0.54446103     0.64168371    -0.92805442
O      -4.05644432     4.41051536    -2.08066314     0.21081479     0.11794962     0.63015125
O      -4.04971014     4.48434422    -5.95069473     0.55349522    -0.30954310    -0.00667210
O      -8.06212610     4.46759247   -10.06988886     0.51476539     0.11828870    -0.04665723
O      -8.03580645     4.52241171    -5.98466271     0.01004086    -0.30734758    -0.21817278
O      -7.89368755     8.61778918    -9.89026033     0.50483885     0.13341312    -0.33841027
O      -8.02313376     8.61999480    -5.95034499    -0.87093376     0.53645175    -0.28569035
O     -11.67139723     8.61004027    -6.16930176     1.20571469     0.61363207     0.36116423
O      -7.66538513     0.14914274    -9.78156739    -0.84002837    -0.49324623    -0.24318803
O      -1.98534685     4.15479274    -4.05499846    -0.01739334    -0.16751932     0.09688724
O      -2.02183571     3.97788664    -8.05403851     0.95696835     0.34053075    -0.21078740
O      -5.91750422     4.26856643    -4.07655430    -0.66648453     0.06769887     0.09019234
O      -5.84621887     4.41123768    -7.92091964    -0.61743285     0.42425247    -0.38466528
O      -1.93799978     0.22138489    -4.00002268    -0.32705171    -0.52014207     0.39395726
O      -5.74048772     8.58393713    -7.87709372    -0.20297901    -0.60563184    -0.25256021
O      -5.84580368     0.35599584    -3.91378239    -0.43058176     0.26776907    -0.39009895
O      -5.68680716     0.56232215    -8.11673377    -0.50725657     0.52739476     0.33929335
