# total energy = -630.45424754 eV

CRYSTAL
PRIMVEC
        0.00279571     0.02951795    -7.98606283
       -7.83802570     0.01298533    -3.99532603
       -3.92160916     8.71933433     0.00634407
PRIMCOORD
56 1
Li     -3.85150999     2.49848497    -1.81881682    -0.45826287    -0.39518756    -0.44533591
Li     -3.84131666     2.57818846    -6.10405608    -0.13249034    -0.87295674     0.70373288
Li     -7.84671235     2.17025059    -9.75652030    -0.50105195     0.30282627    -0.53691381
Li     -7.70368867     2.62218007    -5.94325351    -0.65688677    -0.70437447     0.13884166
Li     -3.72235122     6.30946264    -2.06947638    -0.41303218     0.71882420     0.82757617
Li     -4.01565337     6.59216988    -5.89074146     0.18565302     0.01380206    -0.14765171
Li     -7.85483304     6.38264443    -9.91952682    -0.36374272     0.30828365    -0.28864960
Li     -7.87822392     6.45937169    -5.87804750    -0.00925892    -0.31931575     0.00677509
Ti     -2.09165390     2.10439651    -4.00901692     0.44629078     1.66338689     0.01584583
Ti     -5.90514969     6.62406775    -8.03329139    -0.30499568    -0.06806036     0.24589360
Ti     -7.92439397     4.44966255    -7.76997632    -0.27868306    -0.84781307    -0.26663714
Ti     -7.74158323     4.29506001    -3.67610725    -0.21850544    -1.74298300     0.89024082
Ti     -3.85690549     4.46745494    -7.74717863     0.21004209    -0.98218779    -0.44638701
Ti     -3.97856998     4.46048828    -3.76661411    -0.30530901    -1.65139339    -0.46268875
Ti     -1.65560381     0.01130209    -2.03677788    -0.53748561     0.39817898    -0.09281910
Ni     -5.89162512     2.38443433    -7.91476549    -0.44576186    -1.21425414     0.11308606
Ni     -5.90006883     2.15355609    -4.08724504    -0.11755356     0.82437933     0.82708588
Ni     -9.86640505     6.51129742    -7.99473672     0.86459093    -3.18591543    -0.86570319
Ni     -9.73159376     6.32923805    -3.92581094    -1.61712542     0.75565131    -0.89479693
Ni     -1.93311128     2.12388504    -8.08889007    -0.06451904     0.49064879     1.02909805
Ni     -5.94425006     6.60603709    -3.99861706     0.00682534     0.05832921     0.03638679
Ni     -2.00402680     0.05577056    -6.00955384     0.19681734     0.30052174    -0.03949258
Mo     -5.99906957     0.06572260   -10.25879464     2.44062600     0.27187249     0.61079925
Mo     -5.69738427     0.10756313    -6.31727083    -0.58291771     0.08488839    -0.15819655
O      -1.96302727     1.94531416    -2.04463267    -0.14976303    -0.09273115     0.47394963
O      -1.96591722     1.89438918    -6.07228229     0.11664877     0.14690449     0.33831850
O      -5.85217634     6.77684205    -2.02921866    -0.30238108     0.26614539    -0.12062953
O      -6.00006819     6.93182692    -5.97934339     0.19034771    -0.15836679     0.05515178
O      -6.05454283     1.93887962    -9.75612111     1.13914129    -0.50451237    -0.15370354
O      -5.91762758     2.02361098    -6.05713171     0.59261725    -0.45072752     0.15841188
O      -9.84230358     6.72294222   -10.09982956    -0.49774235     0.02791060     0.55310088
O      -9.74696308     6.85699887    -5.91277501    -0.01340467     0.28572387     0.56503757
O      -3.96271798     2.43109254    -3.92121914     0.03867841    -0.22080198    -0.45254550
O      -4.00692252     2.36509737    -7.94222585    -0.00959775     1.51568651    -0.29370522
O      -7.83520772     2.37733595    -3.99620250     0.20520297    -0.61795375    -0.40241943
O      -7.85262037     2.48660620    -7.84602466    -0.17651042    -0.26347158    -0.65233827
O      -3.84919099     6.30992859    -3.97214205    -1.52654394     1.34028001    -0.32229141
O      -3.98965178     6.37329982    -7.96214986     0.83981228     0.41147869    -0.05942333
O      -7.92377601     6.11604133    -3.88562171     1.12921598     2.45513995    -0.58399262
O      -7.96998880     6.37446139    -8.03216800     1.03257350     0.51281616     0.38767993
O      -3.88480375     4.46322749    -2.00106482    -0.42149219    -0.54621815     0.57430156
O      -4.02264625     4.40266542    -5.99877327     0.20763933     0.27628212    -0.35172835
O      -7.81100449     4.32421568    -9.86800533    -0.01816639    -0.02488304    -1.08833026
O      -7.98788830     4.41201290    -6.00919699     0.35662084     0.73122187     0.04653403
O      -8.13226325     8.69901167    -9.96919943    -0.51902947     0.17569973    -0.26990077
O      -3.96271733     0.14549904    -5.99601197    -0.26293245    -0.19201338    -0.62601924
O      -7.72436774     0.05919182    -6.16675175     0.49122822    -0.14420576    -0.00371149
O      -3.89588741     8.68492955    -5.93979812    -0.97009327    -0.22570896     0.15996191
O      -2.07874499     4.24919360    -4.14970729     0.67464858     0.67025727     0.40199518
O      -1.94186402     4.10093701    -0.12159919    -0.37646140     0.07165405     0.91081518
O      -5.87171451     4.12780735    -4.12383735    -0.46395645    -0.28053742     0.40284769
O      -5.94751662     4.70580418    -7.98591131     0.48819968     0.27304988    -0.00202436
O      -2.21208363     0.32212627    -3.96910587     0.63791778    -1.87794655     0.17120596
O      -5.83306707     8.69412788    -8.13339895    -0.15783909    -0.77430026     0.31218523
O      -5.97010703     0.17021875    -4.07225234     0.04551021     0.43560852    -1.32357521
O      -9.79884467     8.19985059    -8.05480892    -0.07548888     2.96899810     0.65775785
