# total energy = -630.03919271 eV

CRYSTAL
PRIMVEC
        0.00279571     0.02951795    -7.98606283
       -7.83802570     0.01298533    -3.99532603
       -3.92160916     8.71933433     0.00634407
PRIMCOORD
56 1
Li     -3.74875589     2.50510631    -1.97421863    -0.87823749     0.21861363    -0.30775219
Li     -3.95171440     1.86063887    -6.02630091    -0.08889393     0.28662077    -0.08324621
Li     -7.69586900     2.26412193    -9.94413694    -0.40700740    -0.03215215    -0.23365432
Li     -7.72503186     2.18481856    -5.77620060    -0.52577534     0.24553360    -1.00456800
Li     -3.90296801     6.61359531    -1.80759844     0.15583233    -0.30243054    -1.13774690
Li     -3.97977525     6.58163039    -5.85375361     0.14033128     0.17388815     0.01265647
Li     -7.81730714     6.09790223    -9.87329394    -0.30894274     1.16551079    -0.19213145
Li     -7.70217637     6.56332898    -5.92862331    -0.48898415    -0.35716492     0.19583810
Ti     -2.03456720     2.17650435    -4.14721065     0.21900911    -1.52253310     0.18555344
Ti     -5.89227509     6.67330706    -7.96900698     0.07105114    -1.00249738     0.18153760
Ti     -7.95511266     4.28812429    -7.76282807     1.00698062     0.90185347     2.36015603
Ti     -7.81828693     4.27132067    -3.74536843    -0.54680604     0.30578602    -1.03256644
Ti     -3.87383147     4.41622022    -7.71020569     0.43691685     0.49857595     1.23294019
Ti     -3.91908731     4.52134367    -3.76099601    -0.52446815    -0.17483638    -0.61841349
Ti     -2.29882972     0.10776431    -1.98476386    -0.50338370    -0.33931758    -1.29805028
Ni     -5.88037008     2.38286894    -8.05505996    -0.02813988     0.99632881    -0.11842557
Ni     -5.86706659     2.08230183    -4.07213010     0.33802419     0.39546504    -0.30486201
Ni     -9.85027841     6.65953054    -7.89306001     0.51604926    -0.20240940    -0.07936031
Ni     -9.70168639     6.52323437    -4.11688933    -0.38470275    -0.70613767     0.88232716
Ni     -2.05914605     2.15760461    -7.95900686     0.49360786    -0.02319619    -0.36714620
Ni     -5.89616799     6.55321866    -3.84521595     0.10116266     0.36643343    -0.92394578
Ni     -1.92461540     0.04743012    -6.06054952    -0.76567350    -0.80150434     0.58845802
Mo     -9.92265290     8.67525623   -10.19468839    -0.40631566     0.96100658    -0.43634566
Mo     -9.73941097     8.64115814    -6.33036308     0.87166305    -0.25202766    -1.00451804
O      -1.93535758     1.98875098    -1.89772436    -0.18797098    -0.58067759    -0.14358123
O      -2.01570810     1.90646890    -6.05177513     0.18832640    -0.08555744    -0.36727692
O      -5.90291284     6.92338586    -2.00396339     0.10459404    -0.99945084     0.87872404
O      -5.88706321     6.94087665    -6.03216324     0.80769314    -0.42138005    -0.32921728
O      -5.83397553     1.98878205   -10.23060558     0.04404455    -0.46416980     1.00353099
O      -5.85721324     1.99825862    -5.97834642     0.55706701    -1.22062031     0.78212302
O      -9.79495611     6.87356212    -9.85004080    -0.44647164    -0.68953124     1.05903496
O      -9.66901841     6.63993302    -6.00572444    -0.29891442     1.17835611    -0.55592247
O      -3.89417165     2.35401357    -4.07536305    -0.94206410     0.67175813     0.29291816
O      -3.99737219     2.50131388    -8.14419213     0.64417510     0.23082641     1.32590734
O      -8.00226551     2.31330527    -3.97699186     0.97764050     0.80590404     0.68872437
O      -7.83040577     2.32471561    -7.95383824    -0.05354119     1.01766297    -0.38181059
O      -3.91431600     6.48109145    -3.82719842     0.12659200    -0.30076232    -0.55561268
O      -3.83511691     6.31655747    -8.03608247    -1.32322247     1.61695557     0.44050445
O      -7.82265796     6.34643975    -3.94251868     0.38612442    -0.97529806     0.22546008
O      -7.95388514     6.35026201    -7.93706729     1.21406511    -0.77401671    -0.48235728
O      -3.66120580     4.49595286    -2.03247302    -0.57423787    -0.44140721     0.36660693
O      -3.74204493     4.78257105    -5.94360810    -0.22926586    -1.68669299    -0.77102424
O      -7.75145414     4.28233562    -9.93254802     0.14731091    -0.27225765    -0.14240833
O      -7.65739861     4.30382010    -5.95962102    -0.35420911    -0.05999302    -1.67723492
O      -8.05003843     8.61268308    -9.96333113     1.36062140     1.11772848    -0.04169549
O      -7.85064405     8.53671879    -6.20716752    -0.05634495     1.37679097     0.71681413
O     -11.45398596     8.52254808    -6.14637193    -1.70664885     0.69836228     0.69900604
O     -11.72011200     8.72937793    -9.92678408     0.03681428     0.34505251    -0.30713156
O      -2.00460425     4.07090112    -4.03361966     1.30813517     0.36997705    -0.08768948
O      -9.74904308     4.64480121    -4.05643282     0.96631668    -0.31366672     0.35940208
O      -5.79563169     4.59251735    -3.95489802    -1.37791421    -0.15856234     0.10796759
O      -5.80859307     4.58570541    -8.02507139    -0.69453035    -0.38669300    -0.01157409
O      -2.09249850     0.24370850    -3.93618438     0.20453000     0.05617831     0.52420269
O      -5.89673854     8.57339520    -8.10160665     0.44536648    -0.46335776     0.49641172
O      -9.86591057     8.49736309    -4.05037650     0.40759038     0.34049014    -0.09898161
O      -5.85779418     0.59896507    -8.08961837     0.10874596    -0.56674589    -0.47238949
