# total energy = -630.81445073 eV

CRYSTAL
PRIMVEC
        0.00285542     0.02004370    -7.95977623
       -7.82940539     0.00763210    -3.98158109
       -3.91729101     8.74642787     0.01461334
PRIMCOORD
56 1
Li     -3.83777813     2.34047145    -1.94930953    -0.63528409     0.13336049    -0.25831931
Li     -4.03345265     1.93200589    -6.06108504     0.64354826     0.03654372     0.34291522
Li     -7.84146954     2.53070053    -9.99516175    -0.07281287    -0.77301279    -0.00809035
Li     -7.89873345     2.11214804    -5.96586622     0.53208331    -0.18857477     0.56859758
Li     -4.02442496     6.32974702    -1.95681878     0.43394705     0.06646352     0.59308424
Li     -3.87921202     6.41820171    -5.92469800     0.07408690     0.12031773    -0.06425300
Li     -7.99395782     6.36248888    -9.85904587     0.62876715     0.12480100    -0.21079807
Li     -7.72658831     6.67017208    -5.70343293    -0.41659839    -0.05744154    -0.65852297
Ti     -1.89920959     2.26571873    -3.97105159    -1.56346843    -1.46308156    -1.14977291
Ti     -5.87869284     6.77377836    -7.84834078     1.14522114    -1.59702713    -0.20477917
Ti     -7.80000828     4.37671807    -7.70054814     1.57740754     1.32769162    -0.75195551
Ti     -7.75727390     4.34930726    -3.79255675    -1.23314649     0.64464906    -0.32981736
Ti     -3.78509522     4.27757830    -7.65475496     0.56584392     2.76818276     0.07630279
Ti     -3.86693869     4.43356866    -3.81919267    -0.48908995    -1.39355605     0.24640547
Ti     -6.16236357     8.67785192    -2.20079522     0.20326369    -0.53842734     0.52625386
Ni     -5.88092873     2.33857004    -7.99747030     0.62365327     0.20108917     0.12764193
Ni     -5.73736943     2.30692669    -3.99091476    -1.91656524    -0.54697513    -0.31997530
Ni     -9.80844366     6.67747891    -7.88667703     0.07187589    -0.37274445     0.38864135
Ni     -9.72466055     6.58380716    -4.00544764    -0.38066650    -1.02891590    -0.01561302
Ni     -1.94755198     2.14538920    -7.99585419     0.44205547    -0.21692507     0.49186150
Ni     -5.71862382     6.49363761    -3.92988730    -2.44546609     0.32250280    -0.01319536
Ni     -5.96702151     8.73262204    -5.95298757     0.48758164    -0.49537134    -0.32248146
Mo     -6.04154729     0.05653492   -10.15432678    -0.29937430    -1.05226140    -1.95223383
Mo     -9.93210624     8.65251848    -6.31753357     0.84110274     0.03551115     1.65698813
O      -2.01284821     1.93334579    -2.01826868     0.63587136    -0.44987306    -0.22247689
O      -1.97424512     1.83325389    -6.04672241    -0.12544639     0.06947257     0.04901135
O      -5.87533308     6.83469793    -1.85122151     0.30031527    -0.64843039    -1.68621891
O      -5.79638193     6.77160171    -5.90453810    -0.51084760     1.17383488     0.35419414
O      -5.86033824     1.92608355   -10.04923094     0.35295551     1.10341662     0.13146087
O      -5.85857896     1.84211615    -5.80653030    -0.51654183     0.60990697    -0.60832014
O      -9.78193071     6.90546276    -9.72483653    -0.38720678     0.05577385     0.02132269
O      -9.85904716     6.76588591    -6.00331979     0.39993210     0.28352050     0.14694031
O      -3.90829085     2.33261705    -4.00742354     1.37253885     0.74164796     0.14976506
O      -3.85861826     2.47419959    -8.04967027    -0.08432880    -1.48543558     0.71526475
O      -7.81875434     2.35554351    -4.03324088     0.00177950     1.18970816     0.35015171
O      -7.80752254     2.39495334    -8.00316342     0.08364311     0.21776748     0.53234801
O      -3.91229114     6.32745193    -3.95624666     1.73202751     0.98248493     0.27667739
O      -3.83642041     6.38859978    -7.90230049    -0.92155350    -0.46486341    -0.11091537
O      -7.65215546     6.39174214    -3.87800269    -0.76613484    -0.58789515    -0.07454906
O      -7.77138966     6.40784799    -7.92955004    -0.66513610    -0.69769090     0.29146120
O      -3.91971742     4.39096638    -2.04216274    -0.20349232    -0.09916928    -0.49854536
O      -3.98719531     4.51904965    -5.89516881     0.59896280    -0.68503730    -0.32785767
O      -7.94284917     4.40776006    -9.97414862     0.06670200    -0.03921540     0.00444662
O      -8.06299777     4.55623516    -6.01318547     0.61218190    -0.50207208     0.95783631
O      -7.94298897     8.69008145    -9.92872615     0.50251750     0.62720071    -0.24272923
O      -4.10324716     0.02626224    -6.06226456     0.01627419    -0.84837509     0.08697715
O     -11.71136479     8.75534048    -5.96849155     0.80101414     0.04609655    -0.48995417
O      -7.79560784     0.02570863   -10.04453209     0.06118338    -0.02522823     0.21447875
O      -1.89485115     4.10872873    -4.07427016    -0.80351789     0.05312663     0.01404453
O      -9.78169540     4.66741988    -4.17964882     0.18897758     0.20017529     1.21518248
O      -5.89152009     4.42273975    -3.99632035     1.13992946    -0.17115020    -0.14183873
O      -5.78656996     4.26091250    -7.85647818    -1.35404433    -0.23425489    -0.44910413
O      -1.83833571     0.10863939    -4.04313334    -0.50488472     0.76807509     0.43510012
O      -5.85755233     8.50165501    -8.01892025    -0.22733519     2.25018693     0.71378874
O      -9.75063099     8.51018493    -3.99267448    -0.20802429    -0.27119746     0.65078995
O      -5.86260728     0.47073483    -8.05816518    -0.48133859     0.71664556    -1.07009654
