# total energy = -630.55143584 eV

CRYSTAL
PRIMVEC
        0.00285542     0.02004370    -7.95977623
       -7.82940539     0.00763210    -3.98158109
       -3.91729101     8.74642787     0.01461334
PRIMCOORD
56 1
Li     -3.87232194     2.07645499    -1.98760460    -0.63491682     0.57385838     0.23165655
Li     -4.02614339     1.94183899    -6.07924722     0.24258374     0.40894530     0.11161709
Li     -7.78628911     2.04738900    -9.99008166    -0.27764653     0.09896488     0.18696205
Li     -7.76534860     2.29112252    -5.87728431    -0.68253968     0.19518694    -0.30880116
Li     -3.80326435     6.59232535    -1.91395619    -0.07648245    -0.24596065    -0.31824447
Li     -4.05527045     6.74171157    -5.91771409     0.82885346    -0.51401502     0.22389857
Li     -7.91237029     6.51542196    -9.94744379     0.57811212    -0.00645455     0.20653188
Li     -7.65320662     6.45499685    -5.97860860    -0.79945509     0.09062462     0.22959500
Ti     -2.04953731     2.17586259    -4.10249559     1.45291601     0.47735761     0.09853797
Ti     -5.73509021     6.53816137    -8.09721733    -0.69787422     1.00227726     0.69926111
Ti     -7.83526432     4.44919400    -7.73466002    -0.36668538    -1.92940068    -1.34999613
Ti     -7.85817135     4.44396543    -3.67998006     0.57435866    -0.63033156    -1.99836977
Ti     -3.83230402     4.35143713    -7.59091826     0.74483111    -0.05670150    -0.76659637
Ti     -4.06081600     4.42731371    -3.63021906     0.43392047    -0.51378085    -1.68632910
Ti     -6.10780603     8.71668142    -2.00460455     1.71594228     0.60629833     0.38990093
Ni     -5.81366198     2.41591110    -8.04541034    -0.85980028    -1.53115811    -0.25997663
Ni     -5.88108914     2.20148895    -4.04074920    -0.60891073     0.07702758    -0.22037487
Ni     -9.79576680     6.65575547    -7.98959446     0.42293606    -0.28964606     0.62517088
Ni     -9.63185436     6.64435661    -3.97454038    -0.81278601    -0.84520802    -0.58421014
Ni     -1.89447481     2.25243070    -7.99435325    -1.28321659     0.09031651     0.06009312
Ni     -5.85002309     6.75473073    -3.98787125     0.41993371    -0.52199733    -0.16069261
Ni     -5.98190432     8.64479989    -5.90939278     0.35590385    -0.04153412    -0.91513506
Mo     -9.88148910     8.66072493   -10.15412211    -0.75628827     2.17636513    -0.09538731
Mo     -9.86564633     8.67832204    -6.23305827     0.51656529     1.02736935    -1.12788167
O      -1.98704619     1.92718808    -2.05374432     0.54374323    -1.23332082     0.73763043
O      -1.92717440     1.70861784    -6.03844758    -0.80706045     0.67552677     0.22459361
O      -5.87498054     6.72067595    -2.01401939     0.35009886     0.09557399    -0.44248410
O      -5.85404460     6.81845078    -5.94020315    -0.17373324     0.14131234     0.60320681
O      -5.89725605     1.99728364   -10.04578392     0.99684316    -0.41222258     0.07248391
O      -5.97473185     2.00721164    -6.05901547     0.79030293    -0.15778450     0.88094197
O      -9.76501151     6.80468158   -10.05748185    -0.19438876    -0.81847828     1.32092747
O      -9.73235028     6.84674453    -5.96196828    -0.04382378    -1.56302602     0.24368808
O      -3.89516059     2.40215952    -3.98378798    -0.79392742    -0.63789680    -0.15755396
O      -3.86165876     2.45896240    -8.01777077     0.11807802    -0.17257570     0.56009204
O      -7.92329977     2.41753887    -3.88931571     1.13180118     0.53189922    -0.56629574
O      -7.82298083     2.45957652    -8.11867558     0.84968021     0.09574320     0.61423503
O      -3.79811799     6.34582464    -3.93386966    -0.69195065     0.34927440    -0.20152109
O      -3.82622418     6.43135806    -7.94083004    -0.32670141    -0.82228684     0.18074625
O      -7.72230269     6.46384928    -4.01477503    -0.54289105    -0.69096669     0.44626414
O      -7.77918135     6.35602303    -7.95917557    -0.05982697     0.85991603    -0.32615291
O      -3.98564458     4.32048371    -1.92146903     0.09457494     0.41056513     0.47164030
O      -3.87340162     4.27704056    -5.86852490     0.33183580     0.34832563     0.19399798
O      -7.92082445     4.59412027    -9.93486730     0.06146388     0.01575397     1.02717498
O      -7.89233543     4.51647930    -6.03651408     0.27194663    -0.21732071     2.08452199
O      -7.89405847     8.65722820    -9.87366036    -1.42317213     0.31306390    -0.24279734
O      -8.05279923     8.74914063    -5.92494413     0.97899334     0.08016686     0.14459658
O     -11.65546288     8.63158612    -5.97165564    -0.12685482     0.26773172    -0.27938367
O     -11.65779560     8.75819150    -9.90747502     0.59551019    -0.80131671     0.14453392
O      -1.91459873     3.99337606    -3.85611823    -1.28201385     1.14977817    -0.58596025
O      -9.75391515     4.37350452    -4.07770685     0.15880146     0.05690834     0.38377730
O      -5.89153472     4.02515921    -4.07869400    -0.51525128     1.03815631     0.55695524
O      -5.80108961     4.36778490    -7.90000816    -0.30306623     0.81427901    -0.32985808
O      -2.03147173     0.10050585    -3.89737695     0.23828056     0.26019352    -0.76529107
O      -5.75203517     8.44223157    -8.04145667    -0.41399309    -0.39305813     0.61202657
O      -5.97456324     0.37483534    -4.02433236     0.50022818    -0.46963972     0.35315710
O      -5.73761897     0.50754655    -8.02352738    -0.84854656     0.47336553    -1.00169135
