# total energy = -631.12344414 eV

CRYSTAL
PRIMVEC
        0.00285542     0.02004370    -7.95977623
       -7.82940539     0.00763210    -3.98158109
       -3.91729101     8.74642787     0.01461334
PRIMCOORD
56 1
Li     -3.87490588     2.53804513    -1.89928699    -0.44845220    -0.07553537    -0.14316153
Li     -3.96944286     2.19281629    -5.81589470     0.05419523    -0.07173112    -0.57592098
Li     -7.64736758     2.17692240    -9.84659705    -1.00117310    -0.00545396    -0.47938116
Li     -7.82081790     2.25203956    -5.87610471     0.11743043    -0.06627358    -0.07268028
Li     -4.06293292     6.53502621    -2.01276479     0.67148132    -0.21919503     0.57382067
Li     -4.02667740     6.65336911    -6.01103147     0.63116244    -0.24009384     0.58845228
Li     -7.84307906     6.44918704    -9.85013699    -0.34086043     0.15511042    -0.34923876
Li     -7.72908233     6.64276884    -5.79748075    -0.63169129    -0.30050907    -0.22934558
Ti     -1.98358397     2.34716060    -3.95180336    -0.48101260     0.11095295    -1.57616543
Ti     -5.96177447     6.81011931    -7.98787388     0.84139564    -1.21097428    -0.03412904
Ti     -7.74842580     4.35386604    -7.69182635    -0.32648662     0.25962032    -0.38028256
Ti     -7.74170801     4.41173836    -3.66039012    -1.27668622    -0.12393535     0.19551348
Ti     -3.99975674     4.33431189    -7.59664804     1.32159406    -0.47643194     0.38163231
Ti     -4.02053457     4.50328506    -3.74976752     0.53615238    -1.57875666     0.80367631
Ti     -1.99883755     0.01518064    -2.27236640     0.65290341    -0.65432396    -0.39004360
Ni     -5.82131646     2.31169935    -8.06344175    -0.13831643    -0.63978085     0.21648341
Ni     -5.90437976     2.23837434    -4.03871476     0.41604119     0.22501464     0.05266721
Ni     -9.83584829     6.60580437    -7.78194593     1.24013945    -0.63729292    -2.31994912
Ni     -9.87554616     6.25895234    -3.86445793     0.29748654     0.33590055    -0.60667611
Ni     -1.96145675     2.24427771    -7.91966772     0.22398812     0.54644706     0.00244736
Ni     -5.86358409     6.58935132    -3.98436068    -0.42999629     0.00743003     0.36703453
Ni     -5.85455303     8.74452361    -5.92739268    -0.11764075     0.09642994    -0.71438671
Mo     -9.75721229     8.69302028   -10.29457620    -0.87042795    -0.21268957     0.58792909
Mo     -9.78406449     8.68258442    -6.28589052     0.49266441     0.23148892    -0.91391375
O      -2.04418780     1.98693542    -2.09154206     0.70095807    -0.76794973     1.20445387
O      -1.99882343     1.84678052    -6.07695300     0.39574833     0.02660530     0.95184025
O      -5.93423321     6.76887644    -2.07505983    -0.00371323     0.60671178     0.77383694
O      -5.86747770     6.87623348    -5.81934653     0.22670701     0.12261194    -0.74098557
O      -5.84596247     2.06820473   -10.04832384     0.63680164    -0.91648370     0.22734239
O      -5.88080761     1.93705493    -6.06188162    -0.04926865     0.28379736     0.75044913
O      -9.76619589     6.79148423    -9.86175458    -0.50202255     0.59073058    -0.08056212
O      -9.78919124     6.77635595    -6.02727316    -0.56860554     0.20820223     2.30174651
O      -3.93111115     2.41991930    -3.90318267     0.49124399     0.11042748    -0.61107157
O      -3.91694040     2.39416342    -7.92228702     0.37608524     0.39532220    -0.15452840
O      -7.79884636     2.44492123    -3.95115396    -0.89518136     0.00210023     0.00111808
O      -7.75785672     2.39786219    -7.91194758    -0.91752260     0.34789796    -0.29470628
O      -3.80503839     6.34552369    -3.86629518    -0.89789548     1.86821065    -0.91752438
O      -4.10126126     6.19062658    -8.01441204     0.88860421     1.44097562     0.85122026
O      -7.96518395     6.36355624    -3.96451991     0.39169447    -0.52584768     0.47301736
O      -7.77215336     6.42088688    -7.86102051    -0.93975529    -0.42443219    -0.10963618
O      -3.81097597     4.49315550    -1.98048828     0.02508425    -0.64866162    -0.55878187
O      -4.02351790     4.40806958    -5.81607690     0.28239877     0.01152929    -1.13100691
O      -7.87076704     4.53222997    -9.85973376     0.31534922    -0.24380537    -0.26861524
O      -7.82227902     4.44539163    -5.95218266    -0.12020839    -0.04128589     0.10758277
O      -7.90794115     8.57702018    -2.12366763     0.21578036     0.70110974     0.07355165
O      -7.97732441     8.63085070    -6.07711043    -0.89975126     0.44387451     0.20400448
O      -3.92622874     8.71177867    -2.11467346     0.11043567    -0.12408875     0.02274313
O     -11.57014626     8.69553852   -10.04793678     0.39570541     0.09175945     0.21703643
O      -1.91620910     4.20015806    -4.13275797    -0.01971430    -0.22008520     0.70447180
O      -1.96722705     4.31066625    -7.87688245    -0.26067039    -0.18960246    -0.00766790
O      -5.87480127     4.22246415    -3.88163538    -0.31362092    -0.26021862    -0.47704085
O      -5.84208309     4.26293028    -8.03488775    -0.77183255    -0.37478783     0.05370908
O      -1.99238062     0.29157882    -4.10891227     0.04497823     0.12233955     1.06530200
O      -5.83046319     8.54277320    -7.91001339    -0.09385887     1.67376827    -0.45508155
O      -5.96760939     0.33820370    -4.14931041     0.50599491    -0.00261629     0.22241076
O      -5.82486368     0.44679416    -8.13720992    -0.14670885     0.32101203     0.53552614
