# total energy = -629.93741485 eV

CRYSTAL
PRIMVEC
        0.00285542     0.02004370    -7.95977623
       -7.82940539     0.00763210    -3.98158109
       -3.91729101     8.74642787     0.01461334
PRIMCOORD
56 1
Li     -3.98733600     2.39779512    -1.93441910     0.74058139    -0.36090505     0.24587544
Li     -4.01948217     2.30143702    -5.85582612    -0.01015493     0.10719063    -0.51201711
Li     -7.81599492     2.53055161    -9.99750980    -0.09645387    -0.30687705     0.12685841
Li     -7.84980760     1.97260386    -5.89917173     0.43456544     0.21369769     0.20982902
Li     -3.99895706     6.70575486    -1.86402112     0.53128695    -0.51206368    -0.41620346
Li     -4.01074212     6.41859493    -5.84941072     0.70868486    -0.33244573     0.15276434
Li     -7.91446343     6.64212341    -9.84363753     0.29437522    -0.37594840    -0.29340527
Li     -7.70853564     6.74247018    -5.84432943    -0.01673784    -0.47282098    -0.26617110
Ti     -1.99223878     2.20619258    -4.02300598     1.38998301     0.06339216    -0.05430633
Ti     -5.76181469     6.73709432    -7.93544440    -0.60856324    -0.35201541     0.83355688
Ti     -7.82115221     4.50112095    -7.66462810     0.57734582    -0.49754196     0.69329317
Ti     -7.75702208     4.53890142    -3.74220593     1.20313056    -1.96960812    -0.79193992
Ti     -3.80442309     4.31127571    -7.74312413    -0.46258927     0.46633941     1.37888291
Ti     -3.89579320     4.39223394    -3.64454722    -1.72696756     1.52464793    -1.65363115
Ti     -6.14439561     8.69701798    -2.05980057     1.89664024     1.41499791     0.33603312
Ni     -5.85449504     2.34464073    -8.08009781    -0.87610544    -0.24889634     0.76834183
Ni     -5.82330278     2.19027155    -3.93624928    -1.06315839     0.73214029    -1.42911742
Ni     -9.84328757     6.48837466    -7.92780468     0.19488390     0.36029798     0.73716989
Ni     -9.68587981     6.41573322    -4.06760373    -1.34321828     0.28635567     0.97734443
Ni     -1.91417421     2.20931408    -7.91065767     0.25503497    -0.22086336    -0.14719952
Ni     -5.85378486     6.69859748    -3.80912675    -0.04408239    -0.57502891    -1.39880728
Ni     -2.07910516     0.07533278    -6.06032141     0.94157299    -0.20834727     0.99426677
Mo    -10.00118855     8.70188544   -10.26615494     1.03937472    -0.88585950    -0.04637819
Mo     -9.78572197     8.64379880    -6.32133168    -1.62668070     0.39143921     0.04438924
O      -1.86184623     1.93094085    -1.78863321    -0.90350129    -0.49407525    -1.55930176
O      -2.02401219     1.93601966    -6.00200168    -0.19409305    -0.15814082    -0.04478660
O      -6.02116482     6.71200716    -1.92016959     1.16595040     0.70593461    -0.48012639
O      -5.72356811     6.96173266    -5.89374651    -1.89951271     0.39264117    -0.14416606
O      -5.70697797     1.76652373   -10.06725787    -1.25243212     2.19684912     0.63709612
O      -5.88908480     1.78637242    -5.84846971     0.25999059     0.57057413     0.01807513
O      -9.73186720     6.83712989    -9.88941146    -0.89842744     0.36224042     0.66252682
O      -9.73671667     6.77210645    -5.89230241    -0.21660213    -0.78360027    -1.56465511
O      -3.88978242     2.44275292    -3.90981526    -0.69114192    -0.89200587    -0.14366245
O      -3.89210852     2.39502729    -7.99502382    -0.10842679     0.46045863     0.51814661
O      -7.80814624     2.40978063    -3.98642273     0.31583517     0.47098634     0.55889723
O      -7.89536714     2.52976805    -7.99150155     0.76470751    -0.43222197     0.11514943
O      -3.94950190     6.38311168    -3.84776651     0.57975700    -0.13263457    -0.25545086
O      -3.89878416     6.38505588    -7.88654461    -0.04656170    -0.14394283    -0.64626371
O      -7.82673245     6.41758093    -3.98467562     1.01710930     0.81787131     0.42857484
O      -7.80638869     6.40770708    -8.01551788    -0.31331204    -0.24126799     1.27089163
O      -4.01409751     4.44382690    -1.92795221     0.36596477    -0.17388284     1.71879870
O      -3.93796158     4.48030351    -5.95765440     0.15720083    -0.48543545    -1.14758257
O      -7.73865162     4.39395449    -9.96606657    -0.20318430     0.21337826     0.89716918
O      -7.72478245     4.49617582    -5.89941442    -0.47930894    -0.01482463    -1.43639655
O      -3.93727094     0.04372578    -2.12912357    -1.99725968    -0.73537729     0.41282065
O      -7.98770343     8.64967032    -6.09594524     1.01131232     0.32210029     0.23828666
O     -11.61183065     8.60472503    -5.91077869     0.38485143     0.20872932    -0.62644170
O     -11.70364052     8.73793125   -10.21515504    -1.54370615     0.44608314     0.93660602
O      -2.07440378     4.16501442    -4.03423288     2.14768247     0.43383627     0.27757674
O      -9.68514391     4.47889951    -3.95780784    -0.91643304     0.20405258    -0.48158227
O      -5.81703424     4.20846200    -4.03337443    -0.22260561    -0.22448803     0.25741798
O      -5.84175442     4.41236249    -7.97033997    -0.31650717    -0.52039916     0.07934302
O      -1.97562540     0.32623244    -3.94134598     0.32429314    -0.37788937    -0.63650040
O      -5.88437658     8.59789094    -8.03048378    -0.02305917    -0.84499861     0.29550829
O      -9.82884206     8.51375527    -4.06358245     0.99038593    -0.26922050     0.04026887
O      -6.03564775     0.33746894    -8.10409137     0.44840916     1.10092003    -0.67277465
