# total energy = -631.15559619 eV

CRYSTAL
PRIMVEC
        0.00279571     0.02951795    -7.98606283
       -7.83802570     0.01298533    -3.99532603
       -3.92160916     8.71933433     0.00634407
PRIMCOORD
56 1
Li     -3.96481510     2.21042857    -1.94970286     0.02051130     0.16689633    -0.01500568
Li     -4.05464526     2.31380589    -6.00330451     0.12199025    -0.08556176     0.14358151
Li     -7.87259813     2.11335425   -10.09218284     0.10151547    -0.05199941     0.40618846
Li     -7.83304284     2.29302314    -5.79578824     0.12708558     0.02356710    -0.64318439
Li     -3.97958534     6.47337485    -1.95856744     0.42926495     0.16456114    -0.05935980
Li     -3.98708902     6.57368200    -6.05300543     0.48393922    -0.07007123     0.90073307
Li     -7.80822250     6.44157919    -9.92749181    -0.38878020     0.02579508    -0.04260339
Li     -7.69866691     6.38765190    -5.90706020    -0.58429573     0.22601064    -0.00263561
Ti     -1.94899071     2.27894652    -4.01067305    -0.16656363    -1.22057727    -0.99353464
Ti     -5.83444080     6.72217702    -7.99086554     0.51773595     1.26602395     0.67813563
Ti     -7.91612714     4.43384712    -7.79850090     1.37049259    -0.29354083     0.03272375
Ti     -7.85181550     4.39952771    -3.75979702     0.73157595    -2.01819179     0.68743748
Ti     -3.85991950     4.34703796    -7.73509304    -0.00125480     0.63827809    -1.11798264
Ti     -3.94394170     4.48380043    -3.71728711    -1.35280737     0.19625497    -1.01356328
Ti     -5.94500651     8.67501019    -2.15810830     0.35166809    -0.00740726    -0.56722023
Ni     -5.85871752     2.42832732    -8.07278737    -0.65067796    -1.31564874    -0.21155518
Ni     -5.89937789     2.21887921    -3.96496685    -0.02997830    -0.25815565    -0.86024022
Ni     -9.75995375     6.47681177    -7.90631303    -0.76645779     0.56609336     0.07478832
Ni     -9.73401337     6.39912484    -3.97095554    -0.71702926     0.03271926    -0.40755104
Ni     -2.04442744     2.21730978    -7.94773788     0.90037657    -0.17226633    -0.29787095
Ni     -5.89047106     6.59437076    -4.00837187     0.74452265    -0.28192645    -0.20193186
Ni     -5.97064532     8.73777497    -5.97884033     0.30824303    -0.10946913    -0.91403010
Mo     -9.80021144     8.69029346   -10.16555519    -2.32935053    -0.54319862     0.58036052
Mo     -9.85362964     8.66598971    -6.34546930     0.78504027    -0.06481981    -0.50203773
O      -1.97825469     1.84876926    -2.05789420    -0.04361416     0.91701304     0.20321609
O      -2.10722162     1.88598926    -6.08612577     0.58980022    -0.49023936     0.89525195
O      -5.94235347     6.80110219    -2.00137290     0.38353896    -0.92546513     0.03800853
O      -5.85736334     6.85117954    -5.95778222    -0.23580549     0.44710417    -0.18204793
O      -5.85834259     2.00445760   -10.05315917     0.34752340     0.46637158    -0.46464005
O      -5.92850669     1.91750654    -5.85685184    -0.03164820    -0.24176803    -0.41055471
O      -9.79581162     6.78958812    -9.89324415     0.20841265    -0.05722587     0.05839038
O      -9.85948144     6.69391712    -5.97643525     0.64211260     0.63192361    -0.11826522
O      -3.83774484     2.47306067    -4.09456613    -0.94501689    -0.23018248     1.19082202
O      -3.95941003     2.43649092    -7.98165213     0.53481782    -0.03817317    -0.20755230
O      -7.91116682     2.34640917    -3.97457449    -0.10554756     0.73735644     0.31897501
O      -7.84033164     2.43956727    -8.05850654    -0.41756542     0.45203651     0.27635640
O      -3.84814006     6.44636991    -4.02941643    -0.08452942    -1.09574394     0.55034619
O      -3.91797534     6.41256060    -7.95760978    -0.48314912    -0.29076943    -0.23271991
O      -7.78772081     6.24712635    -3.96427925    -0.41485114     1.86743606    -0.47559506
O      -7.77846615     6.40864642    -7.89284239    -0.07843673    -0.68040039    -0.59009028
O      -3.99489755     4.51066257    -1.97911560     0.64121831    -0.29088465    -0.05065813
O      -3.99470446     4.49291587    -6.02785842     0.20933226    -0.09341287     1.13734817
O      -7.81550215     4.45823167    -9.97515247    -0.17589300    -0.20078418     0.26654922
O      -7.76143764     4.36760471    -6.03927798    -0.15832652    -0.13246198    -0.48363100
O      -7.95957563     8.59898246    -9.92007117     1.56914660     0.75855515    -0.33515843
O      -8.06209879     8.56356200    -6.25191147     0.51849057     0.13507920     1.13948246
O      -3.83755127     8.53576844    -2.06108446    -0.91579980     0.58038244    -0.32511080
O      -7.68692374     0.04975860    -9.77234917     0.93590722    -0.25788640    -1.06992648
O      -2.02259642     4.18471350    -4.05934733     1.30087753     0.23739434     0.17333629
O      -9.76546615     4.43656414    -4.07665794    -0.21098420    -0.07998471     0.05177733
O      -5.85980970     4.30968402    -4.02885302    -0.34737344    -0.38008721    -0.01196476
O      -5.76879846     4.26320936    -8.16185874    -1.76220747     1.12192280     0.60701328
O      -1.95663294     0.16482706    -4.09293469    -0.69562812     0.53577728     1.37849630
O      -5.76984228     8.60747067    -8.03568210    -0.49221414    -1.21154481     0.13414867
O      -5.93765135     0.12956093    -3.99577140     0.27911382     0.46489240    -0.01943399
O      -5.80372654     0.59072774    -8.11608819    -0.65124390    -0.18413448     0.79475591
