# total energy = -630.44516638 eV

CRYSTAL
PRIMVEC
        0.00279571     0.02951795    -7.98606283
       -7.83802570     0.01298533    -3.99532603
       -3.92160916     8.71933433     0.00634407
PRIMCOORD
56 1
Li     -4.01889278     2.40410995    -1.92901892     0.11663287     0.25908092    -0.28981066
Li     -4.00775034     2.16675629    -5.95723473     0.48245757     0.40858479    -0.34826062
Li     -7.75780362     2.24704441    -9.98743066     0.01324795     0.31571506     0.07234733
Li     -7.84799489     2.29539186    -5.98126558     0.02442304    -0.19350917     0.57202891
Li     -3.74590426     6.25980746    -1.83443188    -0.74373765     0.70388993    -0.59315260
Li     -3.83585828     6.40620597    -5.91231960    -0.45942190     0.36599893    -0.18772419
Li     -7.93136518     6.46244514    -9.85894254     0.12678740    -0.06775794    -0.47597828
Li     -7.72177818     6.83550671    -5.79858045    -1.11420103    -0.09090605    -0.63287615
Ti     -1.88507610     1.96186055    -4.05373884    -1.12150529     0.87479927    -0.93469992
Ti     -5.88590252     6.52730322    -8.01270641     0.76171235     1.93853013    -0.43133217
Ti     -7.90407585     4.43084164    -7.76853922    -0.84021035     0.38802089     0.71645739
Ti     -7.82539189     4.41865361    -3.79489480     0.11304448    -1.40431552     1.26328526
Ti     -3.81931417     4.39179822    -7.72853756     0.90940498    -0.48754445     0.42092701
Ti     -3.99932725     4.51565570    -3.79417008     0.16727343    -0.91045758     0.55286656
Ti     -2.21801298     0.05097877    -1.98911855     1.42912708    -1.85045113     0.32103815
Ni     -5.92722728     2.25519827    -7.95561208    -1.41882570    -0.57695376     1.49257043
Ni     -5.77134051     2.26508784    -4.11238921    -0.93683162     1.19624622     0.57748967
Ni     -9.88427178     6.46865909    -7.85334115     0.89466105    -0.70479076    -1.10986719
Ni     -9.73361746     6.62235185    -4.04222069    -0.29167985    -0.04320168     1.94562925
Ni     -1.90578217     1.99334503    -7.99055706     0.47355427     1.60915247     0.11166202
Ni     -5.91676488     6.71935081    -4.06108008     1.16619838    -0.34017975     0.72452560
Ni     -1.95700033     0.06821126    -6.05423536     0.61487318    -0.09526131    -0.53986348
Mo     -9.88417647     8.68436333   -10.24163801    -2.80318477    -0.71568701     0.47895025
Mo     -5.88852720     0.08949666    -6.27770526    -1.76941511    -0.07803760    -2.12987647
O      -1.96501672     1.89547897    -2.08993347    -0.10752247     0.63777955     0.35006777
O      -1.77781569     1.93132727    -6.04919540    -1.17905992    -0.58600909    -0.00644517
O      -5.72675943     6.80579857    -2.04822859    -1.08415225     1.04601505     0.35639375
O      -5.95995022     6.94705533    -6.08178724     0.66499130     0.12232326     0.74776391
O      -5.92338258     1.77770860    -9.66741938     0.32623402    -0.45850349    -1.22754320
O      -5.94339319     2.02214255    -6.07227438     0.35085554     0.19246550     0.17598129
O      -9.83441999     6.76058840    -9.99048408     0.99934007    -0.02934642    -1.19887046
O      -9.80933807     6.81394647    -5.83533200     0.91786555     0.44385143    -0.46826201
O      -3.85971849     2.49793853    -4.07360779     0.92438414    -0.65356136     0.56794779
O      -4.20330539     2.46794172    -8.03029875     1.97960872     0.63512640     0.61448471
O      -7.61983667     2.26706966    -3.83168994    -0.58644357     1.53842376    -1.40550036
O      -7.84927397     2.34566157    -8.01686073    -0.05032161     1.04406472     0.33830191
O      -3.96960305     6.43403625    -4.00892876    -0.24145583    -0.37942223     0.18920787
O      -3.86927490     6.46001292    -7.99473164     0.05920801    -1.28730010     0.81172827
O      -7.74271080     6.34995713    -3.99287443    -1.00376350    -0.02746816    -0.03729532
O      -7.83644786     6.40816646    -7.90832411    -0.61739540    -0.43901953    -0.08027224
O      -4.03296120     4.45486373    -2.01083932     0.15601477    -0.65535695     0.58710932
O      -3.94644291     4.37328658    -5.93282091    -0.14591368     0.43321806    -2.02355805
O      -7.82066978     4.48580129    -9.97245767    -0.14523505    -0.49208049    -0.65374255
O      -7.85216585     4.21493182    -6.01355213     0.28076800     0.21350240    -0.45285718
O      -7.91712070     8.63958917    -2.07160313    -0.66025101    -0.17335899    -0.15749936
O      -4.07705582     0.18096497    -5.97069054     0.83116711    -0.44340684     0.07287930
O      -7.66128624     0.07266610    -5.95983230     0.33642413     0.18966487    -0.36449111
O      -3.88821173     8.50679127    -6.06067020     1.57152547     0.93058397    -0.29793746
O      -2.05126575     4.50803989    -3.91458486     1.50140085     0.21537598    -0.30952598
O      -1.93522967     3.98576853    -8.01410235    -0.15019812    -0.61852000     0.08389971
O      -5.85272447     4.14933379    -3.99186618    -1.30048366    -0.24909181    -0.63019324
O      -5.93113236     4.76650795    -8.02301240     0.61270003    -1.94955291     0.26478947
O      -1.88196384     0.15181376    -4.10988864    -0.38213280     0.07875672     1.21024595
O      -1.99590106     0.08039337    -8.10047636    -0.10608723    -0.23143440     0.26777081
O      -5.87645266     0.44290410    -4.00557715     0.54304718    -0.78978735    -0.10804481
O      -9.77681428     8.22326675    -8.09590533    -0.04653681     1.22673235     1.35953634
