# total energy = -630.94650514 eV

CRYSTAL
PRIMVEC
        0.00279571     0.02951795    -7.98606283
       -7.83802570     0.01298533    -3.99532603
       -3.92160916     8.71933433     0.00634407
PRIMCOORD
56 1
Li     -3.98315548     2.05021541    -1.72994512     0.55458852     0.47042465    -0.39882144
Li     -3.97602799     2.15115498    -5.96266856     0.15000023    -0.02741610     0.18107540
Li     -7.74670622     2.12354933    -9.93384096    -0.45934425     0.25367254     0.08855639
Li     -7.81603811     2.35351962    -5.75897975    -0.27457788     0.11410489    -0.68657181
Li     -3.89190591     6.61700131    -2.07492298     0.05812475    -0.39069650     0.52415350
Li     -3.80044799     6.60745265    -5.77733371    -0.68983325     0.00637708    -0.23481765
Li     -7.93307008     6.80239326    -9.96505511     0.00059918    -0.32090124     0.18898242
Li     -7.73216199     6.34854789    -6.00772300    -0.52330795     0.02006434     0.66593981
Ti     -1.94743713     2.38606520    -4.01902693    -0.29036173     0.41053107     0.25435250
Ti     -5.68497178     6.76817927    -7.96909044    -0.97160343     0.02991777     0.42588164
Ti     -7.71431228     4.47349471    -7.85243757     0.07456945     0.49840107     1.48678613
Ti     -7.95448123     4.29373962    -3.69048608     0.10164169     0.26892465     0.65856007
Ti     -3.92732289     4.35021529    -7.76741292     0.65288125    -1.02418741     0.03531164
Ti     -4.13397088     4.31924591    -3.78330573     1.00849811     0.94849671     2.72320929
Ti     -1.79253998     0.04756048    -2.22321900    -0.53807293     0.64290356    -0.28385451
Ni     -5.95664400     2.14061709    -7.89700256     0.37227479     0.03212563     1.04018800
Ni     -5.92176882     2.22296411    -3.98658249     0.77447464     0.01558905     0.15086128
Ni     -9.85599260     6.36962555    -7.98343345     0.75614615    -0.60540405    -0.40506748
Ni     -9.85030599     6.54398699    -4.06534664     0.87597898     0.15355256     0.61215737
Ni     -1.94151481     2.02403123    -7.96778970    -0.33889860     1.01456216     0.58591895
Ni     -5.86754173     6.58248166    -3.90638595    -0.38447575    -0.30214592    -0.57843513
Ni     -1.93158682     0.06444027    -5.97932057    -0.19162568     0.95899345     0.44619458
Mo     -5.86389251     0.12007096   -10.35259638     0.15086347    -0.54543378     0.31925529
Mo     -5.81713596     0.03777429    -6.39657432     0.23695606     0.04961834    -0.04009264
O      -2.02213392     1.96283493    -2.03455007     0.18503404    -0.74118075     0.35271454
O      -2.00571105     1.92201954    -5.91276180     0.33146527    -0.41089520    -0.63230335
O      -5.99127909     6.89992941    -1.91263660     0.33400747    -0.40173594    -0.72366743
O      -5.89305320     6.94774036    -5.98277324     0.29441556     0.00535490     0.32583949
O      -5.81473515     1.94925361    -9.71896623    -0.99245021     0.01450310    -0.41246729
O      -5.90992203     1.95330231    -5.97075179    -0.80632451    -0.37948621    -1.26004686
O      -9.87439922     6.90466904   -10.20494410     0.77907018    -1.22070228    -0.18215136
O      -9.81667122     6.88446523    -5.85454587     0.12734031    -0.19139247    -0.43295971
O      -4.01416509     2.46212832    -4.00973891     1.02737843    -1.13305526    -0.41616120
O      -4.10826804     2.32878976    -7.83611379     0.29543175     0.96595657    -0.02472322
O      -7.73769823     2.29401572    -3.88925385    -0.95041186     0.32933724    -0.15470189
O      -7.88839434     2.49717534    -7.91264045     0.53561372    -1.27728992    -0.43338044
O      -3.87055102     6.28237032    -3.87376970    -1.25630414     0.27308143    -0.41255841
O      -3.88823581     6.48119850    -8.09184972     0.58970140     0.03918511     0.36204255
O      -7.85560284     6.20857005    -3.87835799     0.11245606     0.61102269    -0.61271564
O      -7.94495418     6.39431633    -7.97555691     0.36776238    -0.89281435     0.05341105
O      -3.87166337     4.29758573    -1.94185877    -0.59430798     0.61148043    -1.23229240
O      -4.13176053     4.68559620    -6.02665254     0.79080161    -0.59753622    -0.14300522
O      -8.04654311     4.21341826    -9.89364632     0.63073122     0.14300937     0.00388094
O      -7.95935360     4.26245644    -6.01491957     0.68567775     0.83387893    -1.38492753
O      -7.97894333     8.75526688   -10.00823489     0.62846004     0.21067805    -0.19614327
O      -4.10531137     0.05727733    -6.04939845     0.29677716     0.13071948    -0.30051982
O      -3.91020436     8.65021630    -1.96268589     0.46524851     0.56861237    -0.81352186
O     -11.54757495     8.75058964   -10.01390942    -1.50836618     0.55268979     0.39440035
O      -2.01954620     4.31420811    -3.99636613    -0.06792816    -0.00720834    -0.40105270
O      -1.99230240     3.97521342    -7.91084542    -0.40298600    -0.65903813    -0.35166667
O      -5.95316309     4.14821277    -3.91859540    -1.35115623     0.04084454    -0.25644334
O      -5.78307475     4.81428889    -8.04063668    -1.93889748     0.23400312    -0.19621198
O      -1.99791238     0.29504544    -4.06096716     0.16039585    -0.14064464     0.18616279
O      -1.95249770     0.09563090    -7.91718668     0.14009883    -0.75211103    -0.00135721
O      -5.92215902     0.31147627    -4.15976711     0.25471467     0.26257351    -0.17718695
O      -9.81514517     8.16927261    -8.17757753    -0.21603090     0.78406265     1.81666319
