# total energy = -630.65009134 eV

CRYSTAL
PRIMVEC
        0.00285542     0.02004370    -7.95977623
       -7.82940539     0.00763210    -3.98158109
       -3.91729101     8.74642787     0.01461334
PRIMCOORD
56 1
Li     -3.93619052     2.12574413    -1.86098366     0.14972414     0.10197722    -0.14646897
Li     -3.93365645     2.35768037    -6.08569902     0.08494989    -0.58706416     0.43658080
Li     -7.92431106     2.43697503    -9.82176436     0.33035821    -0.16677893    -0.66293044
Li     -7.67720421     2.23893739    -5.91372997    -0.43450103     0.22519246    -0.14242418
Li     -3.89979521     6.30315565    -1.95983604    -0.19588354     0.11156234    -0.23597243
Li     -3.88713588     6.21083415    -5.90678800     0.01690053     0.43895444     0.35962694
Li     -8.01818578     6.67652877   -10.05258802     0.57790269    -0.05885989     0.49127188
Li     -7.91840801     6.63354095    -6.06337910     0.27060538    -0.37119468     0.74483098
Ti     -2.08954341     2.13137242    -4.04669768     0.88464593     0.41338852     0.65193522
Ti     -5.90256111     6.60502642    -7.90567766    -0.14016426     0.33113715    -0.10302003
Ti     -7.85935193     4.28788065    -7.79216871     0.04279525     0.50494214     1.77239958
Ti     -7.78877371     4.43478545    -3.71869052    -0.37630949     0.81224237    -0.41286630
Ti     -3.89439963     4.35466899    -7.78749477     0.76570211    -1.48469915    -0.75372684
Ti     -4.09001034     4.30030336    -3.78103340     0.96937169     0.57521707     0.18004724
Ti     -1.87681586     0.06265069    -1.89360497     1.39865433     0.53558148     0.08800724
Ni     -5.80660259     2.41426166    -8.01885414    -0.43959793    -0.60541018     0.27613182
Ni     -5.89375462     2.14808904    -3.89485646     0.39006378    -0.34964998    -1.55872244
Ni     -9.74664809     6.39996501    -7.93872082    -0.24659488     0.40900096    -0.12617002
Ni     -9.81724710     6.46045708    -4.02426449     0.13999944    -0.51102470     0.28852021
Ni     -1.81162127     2.29305363    -7.93031131    -1.10724524    -0.26230486    -0.16546011
Ni     -5.93392962     6.81237419    -3.94356645     0.06010356    -1.14728199    -0.20753824
Ni     -5.81487810     8.73669339    -5.89922540    -0.82368941     0.74420334    -0.34650526
Mo     -6.00148372     0.08939761   -10.34355690     0.41676926    -0.51471951     0.60443603
Mo     -9.74400402     8.75370199    -6.23216476     0.20964715     0.50009571    -1.18744449
O      -1.90285022     2.06388421    -1.99328753    -0.45846289    -1.63864283     0.45834504
O      -1.94820123     1.89882273    -5.97854101     0.49160168    -0.77389900    -0.19619020
O      -5.93403934     6.89074431    -1.92057680     0.55413728    -0.28957704    -0.41457077
O      -6.00371604     6.94655142    -5.90402574     1.05583957    -0.65553881     0.23975610
O      -5.96907436     2.08183053   -10.06323547     0.56693931    -0.90434713     1.10588513
O      -5.79687731     1.94687759    -5.75768458    -0.34132472    -0.42947292    -0.07348596
O      -9.86940702     6.83706652    -9.86259888     0.12002985     0.42468074    -0.09874366
O      -9.88814754     6.84241111    -5.98491246     0.53006500    -0.60766225    -0.70247939
O      -3.94583954     2.12591676    -4.02510565    -0.68645748     1.51175540     0.74554072
O      -3.82975320     2.34034824    -7.93286017     0.11526821     0.75574660    -0.71363572
O      -7.74576234     2.53402978    -3.94771649    -0.05685852    -0.74045003    -0.04096365
O      -7.83876449     2.40237566    -7.97406452     0.57323899    -0.34609744     0.10293997
O      -3.73320785     6.20674159    -3.98218534    -0.21251004     0.15722343     0.25024421
O      -3.99534907     6.25678134    -7.88821006     0.29738945     0.84434004    -0.40924935
O      -7.85989251     6.39152018    -4.04033500    -1.01367030     0.37958788     0.24607881
O      -7.76178717     6.31414121    -7.98467167    -1.15833394     0.04981666     0.15764630
O      -3.83526966     4.28419249    -2.02641302    -0.41382615    -0.30910369    -0.30064789
O      -3.85174299     4.22625477    -6.05202866    -0.04350329     0.27492428     1.89774126
O      -8.01677951     4.43766934    -9.92134818     0.80840019     0.10013157    -0.14679526
O      -7.71792140     4.37943784    -6.01041658    -0.53918075     0.11293642    -0.99296779
O      -8.05571625     8.68689668   -10.05336982    -0.81509823     1.05213573     0.44566074
O      -7.96141821     8.69795064    -6.17229339     0.04638899    -0.10102901     0.74484642
O      -7.77462341     0.12827842    -6.02115661    -1.26795091    -0.27586840     0.04565990
O     -11.67569669     8.70158406    -9.85246097     0.79362136     0.49168886    -0.34303566
O      -1.97901864     4.04690186    -4.01148108    -0.68514811    -0.47956072    -0.12630832
O      -9.76842975     4.52050072    -4.01212584     0.66573925     0.55924009    -0.46246170
O      -5.84913492     4.87192682    -4.03301601    -0.91939550     0.27834585     0.30616282
O      -5.80670567     4.34515426    -7.99306431    -0.99004433     0.04212025    -0.51070357
O      -2.08787974     0.02758388    -3.83437125     0.25646766     0.33800305    -0.61326161
O      -5.79779090     8.46312653    -7.83479579    -0.00649856     0.48327059    -1.26052128
O      -9.97149950     8.37381454    -4.16750820     0.25519246     0.16347529     1.63520310
O      -5.89235604     0.59535432    -7.96038097    -0.20851004    -0.14648996    -0.69159273
