# total energy = -630.24577010 eV

CRYSTAL
PRIMVEC
        0.00285542     0.02004370    -7.95977623
       -7.82940539     0.00763210    -3.98158109
       -3.91729101     8.74642787     0.01461334
PRIMCOORD
56 1
Li     -3.88392610     2.11518038    -1.90675724    -0.25492670     0.32205902    -0.58885808
Li     -3.98515961     2.39427572    -6.03902033     0.23375738    -0.19972762     0.31877693
Li     -7.87072527     2.24550668   -10.14072293     0.21070967    -0.42157274     0.43188815
Li     -7.81646189     2.31107331    -6.10137778     0.47036150    -0.29872853     0.83548403
Li     -4.02953653     6.57467632    -1.89945926     0.55106758    -0.11973132    -0.26541216
Li     -4.02421534     6.65242234    -5.75882712     0.33755452     0.10802015    -0.81128840
Li     -7.83880335     6.42971060    -9.96101955    -0.17991510     0.14009291     0.31900779
Li     -7.86645465     6.40440804    -5.93705420    -0.50054963    -0.25811696     0.11378535
Ti     -1.97918478     2.21386467    -4.15279134    -1.76046990    -0.44235189    -0.01663156
Ti     -5.89569379     6.59643991    -7.85718776    -0.53517009    -0.74954549    -0.47835716
Ti     -7.86222820     4.26826642    -7.83759259    -0.50126894     1.39892360     0.17616200
Ti     -7.88272091     4.38814390    -3.81872917     0.62245306    -1.14592268     0.58194039
Ti     -3.84291535     4.32962108    -7.75906795    -1.28970482     1.27415467     0.89183758
Ti     -4.08986197     4.47541616    -3.74057960     1.41304773    -0.65436837     0.46615798
Ti     -1.77856491     0.09601862    -2.09670710     0.33349495    -2.79795851    -0.51314608
Ni     -5.85086458     2.46626433    -8.08422495    -0.76996749    -0.32685862     0.21709517
Ni     -5.81755302     2.22508311    -3.97049124    -0.82044212    -0.26984135    -1.06567476
Ni     -9.82878439     6.59957260    -7.87810693    -0.32682833     0.11660903     0.25759909
Ni     -9.87141488     6.44202728    -3.93410529    -0.10397576     0.48422417    -0.16213399
Ni     -1.96629612     2.36973125    -8.03788264    -0.21156666    -0.58796316     0.83941854
Ni     -5.96424622     6.46822806    -3.87461660     0.16830874     1.04508408    -1.08404477
Ni     -5.95881039     8.63132287    -5.83831593     0.42087918     0.47006585    -1.13746637
Mo     -9.77163775     8.76403545   -10.13276724    -2.17181900    -0.30421676     1.33739295
Mo     -5.72713091     0.04492863    -6.24431694    -0.59306144     0.05245603    -1.53083011
O      -1.90765646     1.90047780    -1.94172822    -0.52086352     0.86889859    -0.25605795
O      -2.11577356     1.81809662    -6.04062062     0.75428221    -0.45450372     0.08450389
O      -5.92145199     6.79570177    -2.07184592     0.05169692     0.01122426     1.28405276
O      -6.02478300     6.70085055    -5.83424191     0.71062720     0.79449233    -0.11769045
O      -5.89925608     2.09259194   -10.03306197     0.65053547    -0.18212993     0.21683802
O      -5.82117474     2.09291013    -6.02783271    -0.26365121    -1.49164014     0.88239070
O      -9.84110185     6.89488465    -9.73841220    -0.17694435    -0.22493824    -0.45241640
O      -9.89301226     6.84327993    -5.98845787     0.79906986     0.46005991     0.58831895
O      -3.89753660     2.30304355    -3.91391334    -0.30574885     0.67512704    -0.37465591
O      -3.94414030     2.48138191    -8.04159267     0.82342151    -0.67883698     0.20945989
O      -7.92529633     2.43624511    -4.04883497     0.13360527    -0.10083647    -0.12111462
O      -7.90661080     2.33112389    -8.12131332     0.59347252     0.19782147     0.33092345
O      -3.88300767     6.41094984    -3.99475394    -0.73470597    -0.96192562     1.06313220
O      -4.01824587     6.37203103    -7.85660926     0.45759413     0.08015262    -0.12042359
O      -7.95917931     6.28635246    -3.95893777     0.49716559     0.91156626    -0.33785464
O      -7.97057074     6.22704639    -7.96769402     0.82266238     0.31414093     0.30688147
O      -3.88891467     4.36314519    -1.97660225    -0.08549572     0.47992241    -0.52703433
O      -3.68650571     4.27658477    -5.97977544    -0.37604335     0.23393875     0.03493777
O      -7.70072024     4.33864410    -9.99888614    -0.18102139     0.02904197    -0.22398702
O      -7.74023541     4.21724755    -6.08984279    -0.17680339     0.57312225     0.58692603
O      -8.01594623     8.64021449   -10.02570794     2.01339827     0.86132085     0.86512574
O      -7.87300156     8.71499722    -6.13053936    -1.09688584    -0.41950283     0.54349133
O      -7.71031372     0.02006738    -6.09102075    -0.71875919     0.19669744     0.17060520
O      -7.71441176     0.15989525    -9.89502561    -0.11960471    -0.99930498    -0.01767804
O      -2.04351575     4.04570885    -3.83789403     0.92292563     0.23810730    -0.91294618
O      -9.79547622     4.58591283    -3.96606737     0.82328866    -0.59525571    -0.78826719
O      -5.85487394     4.04110699    -4.12670302    -0.72540780     1.04523469     0.22792973
O      -5.84564054     4.38104508    -7.91502058    -0.12979264     0.40141706    -0.47240107
O      -2.15954382     0.07393456    -3.96034284     0.73345503     0.96120184     0.75176406
O      -5.96689861     8.36601349    -7.92661739     0.31408731     0.87853532    -0.20488424
O      -5.86983108     0.30495799    -3.95444472    -0.08370295     0.03472014    -2.63583227
O      -5.78230942     0.65707493    -8.03563880    -0.25461505    -0.69549920     0.45910547
