# total energy = -630.25634730 eV

CRYSTAL
PRIMVEC
        0.00279571     0.02951795    -7.98606283
       -7.83802570     0.01298533    -3.99532603
       -3.92160916     8.71933433     0.00634407
PRIMCOORD
56 1
Li     -4.03303730     2.34635099    -1.92461525     0.08294840     0.01679468    -0.24315710
Li     -3.77333355     2.20833865    -5.90757420    -1.14551451     0.15154250    -0.10169103
Li     -7.87238319     2.19842787    -9.95379913    -0.28163037     0.17390068    -0.22637949
Li     -7.78968034     2.09532509    -6.10352081    -0.12985124     0.46515540     1.18457157
Li     -3.88173727     6.75585733    -1.91761575    -0.24040693    -0.46450386    -0.21080264
Li     -3.93774282     6.44931975    -5.89744713     0.14660759     0.13850212     0.16402682
Li     -7.84074693     6.47025255   -10.00313785    -0.08587123    -0.07263742     0.08558450
Li     -7.75690407     6.11495007    -6.00897284    -0.61873950     0.55103312     0.58707219
Ti     -1.96164907     2.28746096    -3.84757034    -0.27229215    -0.71083525     0.32182018
Ti     -5.79913920     6.59700215    -7.87774549    -1.35892449     1.19246056    -0.96950373
Ti     -7.68976937     4.30392215    -7.86055594    -0.03623365     1.13355530     0.74673584
Ti     -7.74358242     4.25545086    -3.84090187    -0.72313871     0.47942651     0.43485605
Ti     -3.78135874     4.29543446    -7.73487573    -1.39443653     0.47133706    -1.28093179
Ti     -3.93865144     4.57017525    -3.78124437     0.52308134    -0.50302962     0.62679845
Ti     -6.16862158     8.64496927    -2.11964791     0.61624855    -0.84314717    -0.15017625
Ni     -5.77936462     2.12504556    -7.84052959    -1.22268160     0.07378551     0.52734101
Ni     -5.86979805     2.47200680    -4.04688580     0.46487795    -2.18494001    -0.64256001
Ni     -9.76697192     6.42171381    -8.01597317     0.05398545     0.17959007    -0.11526532
Ni     -9.76564344     6.44655568    -3.96348995     0.09664179     0.69320689    -0.55117617
Ni     -1.97096085     2.07620218    -7.99198320    -0.07851301    -0.19890206    -0.60757011
Ni     -5.91352283     6.77005213    -4.01231419    -0.21825521    -0.88776555     0.20906675
Ni     -2.11886949     0.04330130    -5.97497282     0.09298509     0.73887491    -1.41849838
Mo     -6.07518342     0.06125376   -10.31463325     1.59485194    -1.06162028     0.16276542
Mo     -5.88645268     0.05859616    -6.25560083     0.90572015     0.30757895    -1.60654793
O      -2.02573633     1.85626536    -1.95469068     0.22707219     1.64793859    -0.74086263
O      -2.04570789     1.91007496    -6.20324014     1.01804113    -0.83512412     1.45537140
O      -5.90072672     6.69954028    -2.11060812     0.35571135     0.92972760     0.23668331
O      -5.95800457     6.90520726    -5.92983973    -0.01624946    -0.21508694    -0.17398333
O      -5.95963738     1.76631910    -9.64872816     0.80690691     0.97115048    -0.21324996
O      -5.82561338     2.02161194    -5.94532191     0.22481535     0.06771433    -0.97781869
O      -9.79157351     6.86980047   -10.11563337    -0.28745973    -0.68885986     0.39764950
O      -9.75789273     6.89819667    -5.82276311    -0.37606414    -0.50524695     0.34314234
O      -3.83358801     2.58614315    -3.95719643    -0.40604409    -0.98761162     0.19024148
O      -3.98553905     2.40435519    -8.02338187     0.83494114    -0.23844698     0.12542134
O      -7.82082389     2.29939800    -3.99233833    -0.25641166     0.67383778    -0.19999054
O      -7.82980437     2.39402942    -7.95251220    -0.10819372    -1.02552006    -0.73368481
O      -3.86609572     6.44548906    -3.90440908    -0.10488865     0.63061357    -1.17322015
O      -3.98576800     6.43508036    -7.85029747     1.34101788    -0.15309172    -0.52484143
O      -7.84342366     6.27009734    -3.95969127     0.14531207    -0.23198159    -0.60827413
O      -7.89937916     6.28419627    -8.05552659     0.99998103    -0.62828316     0.68469608
O      -4.01729719     4.56757422    -2.04414535     0.22589285    -0.78891305     0.94878876
O      -3.77778764     4.28897291    -6.02349299    -0.59078559     0.65545033     1.82027336
O      -7.84201401     4.18336952   -10.05311260     0.14971650     0.12034965     0.34431557
O      -7.80668808     4.10449439    -6.06204578    -0.21489110     1.03217337    -0.26296452
O      -7.92461805     8.60628245    -2.09117674    -1.47907182     0.42303866    -0.46568767
O      -4.04483126     0.10169188    -6.08419656     0.34549258     0.19860365     0.22470237
O      -7.70394976     0.23553636    -6.04214912     0.60421575    -1.46124220    -0.26123622
O     -11.71642564     8.70242696   -10.17560796    -1.64148354    -0.06446905     0.38207294
O      -9.73901285     4.39822187    -7.97621226    -0.42979659    -0.27681938    -0.18549381
O      -9.84083851     4.56066834   -11.96248547     2.48962144    -0.26846082    -0.97066797
O      -5.81872852     4.26519850    -4.13524303    -1.08611023     0.63404685     0.02791991
O      -5.82225203     4.60806839    -7.93710290    -0.04708870     0.75739787    -0.24100910
O      -1.97686011     0.33610184    -4.05789880     0.05012889     1.02416778     0.32952592
O      -5.99879627     8.57778350    -8.24144691     0.62572717    -1.23785311     1.92540927
O      -5.85944033     0.46534681    -4.07965605     0.23178463     0.21259895     0.83772723
O      -9.73172722     8.25538138    -8.09675264    -0.49457751     0.26866661     0.53794639
