# total energy = -630.38964653 eV

CRYSTAL
PRIMVEC
        0.00285542     0.02004370    -7.95977623
       -7.82940539     0.00763210    -3.98158109
       -3.91729101     8.74642787     0.01461334
PRIMCOORD
56 1
Li     -3.88551170     2.24454422    -1.87641001    -0.19145652     0.02962872    -0.69092672
Li     -4.04536783     2.42443710    -5.95606368     0.82415534    -0.48201698     0.30170849
Li     -7.87934739     2.55412824   -10.00955170     0.16717543    -1.02563336     0.20595036
Li     -7.91221304     2.24630624    -5.85280255     0.59842937     0.08007375    -0.13654802
Li     -3.74846860     6.43701391    -1.98376192    -0.72200276    -0.05619412    -0.50210287
Li     -3.88257692     6.30442855    -5.72551980    -0.16079021    -0.02206250    -0.44116705
Li     -7.79934338     6.63363809    -9.95937813    -0.58037964    -0.21856780     0.23067876
Li     -7.81217573     6.80111395    -5.87382135     0.21586079    -0.86415587     0.04508556
Ti     -1.87342369     2.06815478    -4.08138158    -0.56898881    -0.32535043     0.43537970
Ti     -5.75609193     6.56142465    -7.92957694    -0.84252863    -1.78572465     0.16933014
Ti     -7.91511548     4.39555413    -7.66890308     0.31569716     0.30152608     1.26698827
Ti     -7.82672691     4.44221960    -3.75579799     0.68621939     0.64798589    -1.17721155
Ti     -3.81681687     4.33576632    -7.72522580    -0.40711565     0.02526633     0.81963119
Ti     -4.00721676     4.30418676    -3.75512667     0.58140809     0.13856082    -0.13136856
Ti     -6.06132214     8.71166937    -1.96919504    -0.38861138     0.22632285    -0.08079471
Ni     -5.84130602     2.35719200    -7.97894592    -1.49142774     1.22223212    -0.50216610
Ni     -5.83358468     2.17279988    -3.91228959    -0.32952550    -0.13239389    -0.78400886
Ni     -9.79058768     6.70422239    -7.90974622    -1.04106132    -0.16415344     0.76604379
Ni     -9.83176033     6.37886660    -4.19229831     1.36084495     1.02772212     1.09746598
Ni     -1.99692013     2.33868883    -8.01536236     0.21979209    -0.98734262     0.67638252
Ni     -5.90069586     6.60750262    -3.99865781     0.74070101    -0.12955493     1.06971975
Ni     -5.95525965     8.73484333    -6.00505965     1.21921041    -1.08094606     0.60838807
Mo     -6.05215629     0.04800943   -10.17697388    -1.54238308     0.46788643    -0.80451262
Mo     -5.79166483     0.08849730    -6.27750438    -0.92962059    -0.58377646    -1.11578569
O      -1.94851074     1.89652331    -2.02613256    -0.14839186    -0.31185091     0.92249168
O      -2.01253251     1.79461073    -5.99800261    -0.52304795     0.72443446    -0.86321266
O      -5.87554086     6.77169490    -1.89171761     0.16342402    -0.24080815    -1.06362369
O      -5.80867499     6.83458815    -5.90302309    -0.06803988     0.52850943    -0.54494767
O      -5.93674474     2.02827013   -10.08812872     1.11624878     0.15054542     0.81248025
O      -5.81374844     1.97175678    -5.74088979    -0.12083132    -0.73338376    -0.46730819
O      -9.90685770     6.94744316    -9.75335354     0.45834230     0.12807867     0.52936421
O      -9.70487253     6.74191937    -6.06358309    -0.31954136     1.45034484    -0.03634790
O      -3.85710946     2.32930667    -3.98519448    -1.41184686    -0.04180394     0.47993809
O      -3.92282134     2.43742262    -7.96517723    -0.00359100     0.18896114     0.20656892
O      -7.97754703     2.48452856    -3.97598036     0.92739182    -0.08034271     0.19946375
O      -7.84409032     2.33842956    -7.96894857     1.50745325     0.59531369     0.08277286
O      -3.84676831     6.31577191    -3.90095425     0.41318183     0.17354243     0.00513750
O      -3.84939762     6.26566836    -8.07146725    -0.99259834     0.31963396     0.88715573
O      -7.94385856     6.44306649    -3.94989100     0.44721928    -0.97554771    -0.28923929
O      -7.97781015     6.30408026    -7.79839305     1.28053357     0.23711968    -1.16980495
O      -3.93054860     4.31635581    -2.02002495     0.30732064    -0.29154851     1.18756074
O      -3.83634235     4.27107073    -5.88219928     0.11692437     0.88118875    -2.33664970
O      -7.79444446     4.36845361    -9.96893026    -0.20768536     0.47783057     0.85565568
O      -7.66364224     4.32540322    -5.90375336    -0.44011805    -0.42950875    -1.16786591
O      -7.86271990     8.66515757    -2.06324091    -0.56842183     0.56614770     0.66624216
O      -7.85580163     8.63946030    -5.96107639    -1.17695627     0.88244479    -0.41548643
O      -7.59426187     0.03301677    -6.07740633     0.74803721    -0.42454199     0.53445880
O      -7.84238917     0.26673700    -9.99233786     1.10192269    -1.27914934    -0.60482567
O      -1.93334027     3.92301896    -4.01826641    -0.38419055     1.14679031     0.07988615
O      -9.74223122     4.52731723    -4.22543755    -1.06261404    -0.24652388     0.69557205
O      -5.84543547     4.70227902    -3.94765353    -0.90238675     0.10486929    -0.50197217
O      -5.93733674     4.49947698    -7.95082233     1.60801308    -0.67987280    -0.03029769
O      -1.84864337     0.03850473    -3.85709042    -0.13147383    -0.39844447    -0.88666497
O      -5.89820199     8.33633096    -7.94896683     0.10952588     2.17726325    -0.11213489
O      -9.73744290     8.35506530    -3.94147959    -0.59046675    -0.12510263    -0.70878423
O      -5.89873381     0.60292741    -8.15999854     0.96764854    -1.19023384     1.88619220
