# total energy = -630.59892196 eV

CRYSTAL
PRIMVEC
        0.00279571     0.02951795    -7.98606283
       -7.83802570     0.01298533    -3.99532603
       -3.92160916     8.71933433     0.00634407
PRIMCOORD
56 1
Li     -3.93159960     2.20306582    -2.08648636    -0.24616995     0.07435622     0.49697436
Li     -3.87541175     2.35752870    -5.93150403    -0.06747627    -0.14809041    -0.55537874
Li     -7.85111946     2.41624260    -9.92655881     0.13317880    -0.13182195     0.00426555
Li     -7.73684678     2.44628113    -5.93887519    -0.33544878    -0.07164722     0.26482735
Li     -3.92828170     6.57740611    -2.06816205     0.50034216    -0.04883318     0.27409223
Li     -3.76854807     6.34283959    -5.88404738    -0.61380623     0.01404139    -0.48806404
Li     -7.95438545     6.45921951   -10.08718185     0.61207414     0.24670989     0.51501873
Li     -7.81255790     6.51732064    -5.83569604     0.00378312     0.05236026    -0.32161325
Ti     -1.95157004     2.03230335    -3.94984727    -0.63233996    -0.30030512    -0.71892219
Ti     -5.77700999     6.51253720    -7.85906631    -0.05209016     0.43445254    -0.62840581
Ti     -7.90532936     4.48259449    -7.76642326    -0.50952848    -0.23991744    -0.11130375
Ti     -7.91361880     4.37400676    -3.79197932     0.73793972     0.00892225     0.12595970
Ti     -3.79412621     4.33123306    -7.86576966     0.02558426    -0.33448725     0.77675892
Ti     -4.00670790     4.49907743    -3.88528336    -0.61507845    -1.32665547     0.60041551
Ti     -6.12207598     8.68736760    -1.91788268    -0.96001727     0.15322916    -0.88661687
Ni     -5.84105685     2.31029770    -7.77565484    -0.34609861    -0.61500890    -1.05100509
Ni     -5.84953414     2.21632147    -3.95753444    -0.52521732     0.65187647    -0.88293861
Ni     -9.71298417     6.47380522    -8.08974238    -0.26024377     0.30858718     0.25823862
Ni     -9.78921212     6.70812273    -4.00349773     0.44376213    -0.26848524    -0.24223091
Ni     -1.83971353     2.02092954    -8.01023029    -0.76021506     0.63409133     0.51719725
Ni     -5.92028407     6.68477799    -3.99667744     0.56499593     0.05265648     0.01581994
Ni     -2.17017155     0.04575384    -6.08841833     2.59947315    -0.88143279     1.31779498
Mo     -6.14833832     0.09121972   -10.25338949     1.00677567    -0.52749687     0.29959206
Mo     -9.76804235     8.73630072    -6.30292566     1.37631625     0.83669745    -1.09596797
O      -2.01839946     1.85629287    -2.06988077     0.84055706     1.39850059     0.77137619
O      -1.86662596     1.77148804    -5.90011782    -0.72949591     1.93958514    -0.94951242
O      -5.81710953     6.83654388    -1.97247851     0.37193873    -0.74623167    -0.30632837
O      -5.82568495     6.92057905    -5.93656313    -0.82945635    -0.43704247    -0.63128653
O      -5.92441737     1.83486052    -9.68060528     0.08454886     0.28698047    -0.10855104
O      -5.89804934     2.01586601    -5.98380484     0.90393438    -0.62431584     0.34577225
O      -9.82034051     6.78618358   -10.10417109    -0.02876442     0.74826724    -0.06992483
O      -9.67640079     6.74635609    -5.89267525    -1.09063692     1.21387924    -0.11223420
O      -3.91603433     2.24394439    -4.12077700     0.95226325     1.11510245     1.28609201
O      -4.00659788     2.36160128    -7.94367696     0.27617756     0.71738854     0.04698710
O      -7.76762035     2.38958941    -3.98349037     0.37108570    -0.13368711    -0.06975547
O      -7.78799867     2.53765097    -7.87055251    -0.42916255    -0.22210506    -0.30305785
O      -3.88730523     6.38683220    -4.02685980    -0.32927001     0.01646216     0.38872191
O      -3.82827970     6.45875724    -7.93437149    -0.65423384    -0.89561944    -0.67038519
O      -7.80522777     6.38360107    -3.98858099    -0.19534117    -0.64603833     0.48304372
O      -7.72011655     6.40912429    -8.09538799    -0.72269348     0.16480770     0.52714695
O      -3.83498345     4.18841944    -2.14851568    -0.68581950     0.41079961     0.71496691
O      -3.93880762     4.36645835    -6.06732349     0.40745853    -0.06080189    -0.47268876
O      -7.80330376     4.29353322   -10.00725081    -0.14231507     0.86386390    -0.01720449
O      -7.85020821     4.52105132    -6.01459855     0.20541994    -0.25922702     0.16833553
O      -7.88579979     8.69553621    -2.10405472    -0.70326100    -0.07512953     0.11210934
O      -3.94618636     0.03891854    -5.94569798    -1.77717460     0.07882971    -0.59087304
O      -7.55842925     0.09499541    -6.04662276    -1.13624637    -0.64546461    -0.11577789
O      -0.03741553     0.04445410    -6.15495713     0.18262645    -0.35485909     0.37125515
O      -2.01122913     4.48402577    -4.01771604     1.12611583     0.04438716    -0.61452627
O      -1.94811707     3.99081218    -8.04479600     0.33921579    -0.54228850    -0.11020792
O      -5.92717682     4.16668742    -4.09923659     0.50796495    -0.29151119     0.19177360
O      -5.84652153     4.69416468    -7.97251232     0.47580681    -0.41887278    -0.28876942
O      -1.79709352     0.19168412    -3.92276166    -0.11742598    -0.27091883     0.16036521
O      -1.87323708     0.09562576    -8.02777802    -0.04899296    -0.49095295    -0.19795184
O      -5.91220059     0.16939345    -4.09234975     0.41015821     0.40598860     0.90244991
O      -9.73740149     8.34179594    -8.17388126     0.03325582    -0.69393860     0.77850927
