# total energy = -630.74879887 eV

CRYSTAL
PRIMVEC
        0.00279571     0.02951795    -7.98606283
       -7.83802570     0.01298533    -3.99532603
       -3.92160916     8.71933433     0.00634407
PRIMCOORD
56 1
Li     -4.15055821     2.15226643    -1.91318907     1.23854186     0.42187113     0.12610046
Li     -3.96146286     1.88032428    -6.02066432     0.22007653     0.78122730    -0.01303640
Li     -7.69129746     2.57013942   -10.01002438    -0.89349521    -0.30638311     0.20571081
Li     -7.74569813     2.44134856    -5.89646822    -0.07037223    -0.67133696    -0.17317619
Li     -3.89039104     6.31054632    -1.94821336     0.14827021     0.20581131     0.03724474
Li     -3.88673976     6.43007416    -5.83313318     0.12863234    -0.00862132    -0.04407367
Li     -7.96870225     6.48038798    -9.87260404     0.20768874    -0.23284113    -0.32456210
Li     -7.71452492     6.36085004    -5.98711942    -0.14381676     0.14710343     0.27529444
Ti     -1.97158379     2.15432743    -4.05108181    -0.13450599     1.33483427     0.98078454
Ti     -5.78075924     6.76866714    -7.96348341    -0.35184114    -0.31293549     0.74972367
Ti     -7.84846865     4.35877879    -7.73720301    -1.63748514     0.66104383    -1.46872611
Ti     -7.88551893     4.43678311    -3.76639047    -0.12594959    -0.54053748     1.05375939
Ti     -3.96044778     4.34070374    -7.71494381     0.97711576    -0.62918831     1.18018496
Ti     -4.07782803     4.34622406    -3.75809030     1.19065877    -0.56344421    -0.22361641
Ti     -6.09181646     8.69430050    -2.11758834    -0.04345883     0.75905497     0.63496702
Ni     -5.95922708     2.52545770    -8.02474252     0.93632030    -2.63407593     0.34126629
Ni     -5.85405926     2.13273846    -4.01780056    -0.71634095    -0.22276022    -1.00800113
Ni     -9.86039265     6.65808403    -7.94419694     0.81473394    -0.92021001     1.32276254
Ni     -9.85075013     6.47381843    -4.09115585     1.36040911    -0.49231100     0.04018821
Ni     -1.82008857     2.16778732    -7.91756752    -0.90735957    -0.28320937    -0.49242699
Ni     -5.84908980     6.64714735    -3.87827821    -0.27956832    -0.58475164    -0.99709712
Ni     -5.94262757     8.67626823    -5.96911065     1.23030345    -1.00314521    -0.20423902
Mo     -6.04307922     0.14439260   -10.26386312    -1.58691461    -1.34113233    -0.32832939
Mo     -9.70329128     8.61224840    -6.42911256    -3.45991561     0.63165065     0.25187514
O      -1.80916929     1.84786065    -1.97382440    -0.35127659    -0.33441072     0.08881759
O      -1.95077786     1.80064104    -5.94202380    -0.08827867    -0.11197211    -0.93555747
O      -5.86004279     6.75462928    -1.88370147    -0.46778353     0.60195299    -0.90166982
O      -5.78524255     6.74178442    -5.97841837    -0.85832507     1.02222065    -0.08214448
O      -5.97438340     2.06341603   -10.14734313     0.31391731    -0.08575547     0.31325937
O      -5.85123902     1.92119815    -5.93315914     0.39672204    -0.45508268     0.27821989
O      -9.82186146     7.02326119    -9.69962542     0.15393000    -0.15537598    -0.69998993
O      -9.62894175     6.67330263    -6.08342962    -0.91469021     0.41699226     0.05168964
O      -3.97338121     2.34026169    -3.93821599     0.44397717    -0.33330276    -0.66714847
O      -3.81857474     2.46046338    -7.94920095    -0.26471024    -0.29685148    -0.07386147
O      -7.80270849     2.41462702    -4.02878537     0.36428861     0.65445597     0.71207447
O      -7.88076036     2.32130601    -7.98567535     0.40766608     1.20767347    -0.19669413
O      -3.89484667     6.34493718    -3.83238107     0.71050499     0.16481408    -0.63742548
O      -3.88064749     6.35343860    -8.03705929    -0.88992082    -0.41079897     0.43060456
O      -7.92469885     6.29010574    -4.05131227     0.23492916     1.32178831     0.55356429
O      -7.90060697     6.31172433    -8.01168886     0.41329633     0.24497673     0.65760870
O      -3.98491685     4.14914401    -2.01678085     0.38627308     0.82007839     0.70151503
O      -3.76573405     4.31875199    -5.93726016    -0.48832485     0.51604024    -0.56013806
O      -7.68662295     4.44159464    -9.93334178    -0.51680752    -0.28953770    -1.37589701
O      -7.77071140     4.37018108    -6.01294511     0.19554429    -0.14160659     1.41317534
O      -3.98318842     0.17567128    -2.13147213    -0.15072009    -0.56544443     0.86410926
O      -7.91382229     8.62451553    -6.09765619     0.52433123     0.30812275     0.08132709
O     -11.49240326     8.58589069    -5.90820997     1.59524647    -0.14895990    -0.94100285
O      -3.93068377     8.58325561    -6.21651034     1.22469890     1.29412125     0.61919615
O      -1.96697400     4.05096654    -3.92843813     0.09480890    -0.45646815    -0.43875806
O      -9.80315095     4.59449365   -11.90297477     0.24864034     0.24238603    -0.65839467
O      -5.84717687     4.73419380    -3.99129815    -1.71968108     0.24966843    -0.36094047
O      -5.91423509     4.38068781    -7.96378463     1.00016930     0.34928313     0.09820181
O      -2.00944685     0.05765276    -3.98687899     0.42446599    -0.35917979    -0.07878932
O      -5.75301254     8.56852734    -7.96986086    -0.82946348     0.08383307    -0.60596016
O      -9.71854170     8.40104795    -4.00042849     0.03334268    -0.42411123    -0.49591257
O      -5.95898626     0.60270110    -8.19771942     0.43808597     0.51597365     0.98148754
