# total energy = -630.51011429 eV

CRYSTAL
PRIMVEC
        0.00279571     0.02951795    -7.98606283
       -7.83802570     0.01298533    -3.99532603
       -3.92160916     8.71933433     0.00634407
PRIMCOORD
56 1
Li     -4.00205405     2.07374139    -1.94728187     0.11758269     0.11165100     0.18025410
Li     -3.92650204     2.16594187    -6.02730030    -0.40772787     0.06488369    -0.41682419
Li     -7.85287333     2.20667237    -9.87085500     0.15192173     0.20761112    -0.57356154
Li     -7.77288549     1.88732589    -5.89989967    -0.35928087     0.22383330     0.02647075
Li     -3.92677853     6.45503363    -1.82605142     0.22067198     0.13167606    -0.50159286
Li     -4.04169788     6.53940923    -5.87512155     0.69747089    -0.51864083     0.03166103
Li     -7.83224832     6.21836360    -9.87700103    -0.08961622     0.74578210    -0.05668708
Li     -7.81517222     6.44360194    -5.92311047    -0.11349005     0.53495667     0.14522518
Ti     -1.99813330     2.25726385    -3.99573146     0.25130153     0.91557639    -0.99356918
Ti     -5.83233510     6.75411988    -7.90739962    -0.60760899    -0.48386939     0.51403146
Ti     -7.81919767     4.43827323    -7.63948272     0.82693387     0.90464818    -2.90919958
Ti     -7.80663405     4.30597426    -3.74257961     0.48186295     0.60818339    -0.15036126
Ti     -3.84521344     4.41081409    -7.75838858     0.01283554    -0.80382543     0.45366304
Ti     -3.90820518     4.38888243    -3.70029416    -0.72462606    -0.21386339     0.43151039
Ti     -6.08487159     8.63583025    -2.24448866    -0.94374533     0.86308886    -0.05711173
Ni     -5.92693983     2.47180730    -8.09416594     1.76626975    -0.00502999     0.39745615
Ni     -5.84714959     2.22389779    -4.06529966    -0.64491737     0.43403849    -0.85133714
Ni     -9.84292675     6.45768572    -7.92738570     0.78259957     0.56569385     0.94791399
Ni     -9.72200454     6.53454406    -3.93620373    -0.64715082    -0.02108370     0.02221018
Ni     -1.92235666     2.22568894    -7.97282360    -0.69151286     0.53811016     0.32342210
Ni     -5.88663721     6.45696881    -3.98566707     0.07051097     0.02851068     0.09169908
Ni     -5.99674193     8.72181420    -5.95335790     0.41952835    -0.31449477    -0.38067978
Mo     -9.93868420     8.67180269   -10.23449304     0.37560718     0.94278912    -1.14094295
Mo     -9.77627833     8.62092173    -6.42017669     1.23670053     0.96841601     1.44445133
O      -2.00552606     1.93516563    -2.11458313     0.50700490    -0.98556156     0.42993555
O      -2.01926278     1.74565557    -5.92936017     0.44511721     2.29743543    -0.50708903
O      -5.87209532     6.84460385    -1.86434161     0.11052084    -1.17099149    -1.35429526
O      -5.83870339     6.91262509    -5.93383666    -0.72233125    -0.75477609     0.33779530
O      -5.88810605     2.02264465   -10.14634520     0.24508123    -0.13471894     0.57542260
O      -5.93743363     1.96045507    -6.07773354     0.48834604     0.13370320     0.76619254
O      -9.89021052     6.82924222    -9.78700282     0.74077233     0.09384365    -0.75254064
O      -9.86745883     6.78191360    -5.94795562     1.52467858    -0.76647711    -0.14194972
O      -3.93765643     2.43262959    -4.13598470     1.05368810    -0.22540725     1.08497436
O      -3.93625128     2.46317690    -8.04275438    -0.07032520     0.22820498     0.09240969
O      -7.85589531     2.39189517    -3.86129143     0.19967859    -0.88500347    -1.23355649
O      -7.77501082     2.56350615    -7.96799053    -1.37175398    -1.40343535    -0.01975965
O      -3.87000633     6.23868817    -3.95431336    -0.80933291     1.52054923    -0.27647213
O      -3.87298608     6.39502059    -7.89764830    -0.02606535     0.77492616    -0.02361917
O      -7.85293427     6.38433350    -4.03653301     0.38458036    -0.75724688     1.03347430
O      -7.80071093     6.49748503    -7.94022396    -0.48602707    -1.32634448     0.08020652
O      -3.78839940     4.53857964    -1.92686664    -0.25592093    -0.71018064    -0.74343526
O      -3.91046570     4.42810654    -6.02286569     0.28228313     0.10981249     0.69171027
O      -7.73659199     4.38114222    -9.98261450     0.04574753     0.43663902     0.46987358
O      -7.94785417     4.55807357    -5.97785000    -0.07124403    -0.23891266     3.14757961
O      -7.93416112     8.67863225    -2.06297411     0.49041899     0.12075249    -0.19481591
O      -3.97936099     0.03652928    -6.12140521    -1.91917899    -0.58959492     0.14084510
O     -11.55740225     8.53838536    -6.10398748    -1.26112338     1.27810246    -0.07098652
O      -7.78038742     0.04959453   -10.08274286     0.38172908    -0.17105481     0.19592045
O      -9.73779515     4.28879563    -8.05221972    -0.97971859    -1.30871168    -0.03533846
O      -1.88249939     4.19098657    -7.81856473    -0.38495143    -0.14213353    -0.88164424
O      -5.81836048     4.25616836    -4.06010889    -0.34074091    -0.10185271     0.13210257
O      -5.84359641     4.54940338    -7.86811709    -0.57637167    -0.60026088    -0.65804317
O      -1.96264144     0.23549607    -4.10102794     0.05904353    -0.20732188     1.27440999
O      -6.03370765     8.56795465    -7.92202289     0.98758978     0.97950649    -0.30697714
O      -5.84676144     0.36117871    -4.12808759    -0.24747926    -0.82964263     1.48193075
O      -5.85170266     0.61533603    -8.12727602    -0.40894134    -0.39217522    -1.64993379
