# total energy = -630.72549850 eV

CRYSTAL
PRIMVEC
        0.00279571     0.02951795    -7.98606283
       -7.83802570     0.01298533    -3.99532603
       -3.92160916     8.71933433     0.00634407
PRIMCOORD
56 1
Li     -3.96015878     2.48357082    -1.87525849    -0.19179782    -0.53366250    -0.24646709
Li     -4.08778035     2.35441590    -5.88869315     0.76687548     0.14100194    -0.44104642
Li     -7.84171511     2.13974182    -9.99815679    -0.07925901     0.19817739     0.14449684
Li     -7.86918606     2.44508653    -5.90251426     0.22804444    -0.11567052    -0.05777680
Li     -3.96002926     6.30207406    -2.07760718     0.29103907     0.48333566     0.51250094
Li     -3.91618874     6.61119616    -5.91069678     0.07668714    -0.02154699     0.11598762
Li     -7.84423451     6.46214239    -9.97841895    -0.10890853     0.09985137     0.18679046
Li     -7.76585120     6.77373817    -5.96161745    -0.19089159    -0.74654859     0.14062769
Ti     -1.96138227     2.03388759    -4.07882991     0.09678485    -0.73353693    -0.02587332
Ti     -5.73240342     6.55400963    -7.95750548    -1.45009649    -0.66643522    -0.78696826
Ti     -7.89811254     4.44647234    -7.67861263    -0.40239285     1.68960977    -1.39274703
Ti     -7.95528210     4.33759328    -3.72246834     1.67677446     0.63826330     0.72387210
Ti     -3.78548480     4.35311897    -7.75000969    -1.50550290     0.57656871     0.11608104
Ti     -4.04690386     4.38361064    -3.77619309    -0.09748929     0.35638091     0.20734178
Ti     -1.75746693     0.08821732    -1.82014034    -0.10642558     0.09888176    -1.03286973
Ni     -5.88015655     2.11389122    -7.98071070    -0.16977345     0.32020699     1.19312866
Ni     -5.99458756     2.20249701    -4.04325548     0.94745740    -1.91044272    -0.06524218
Ni     -9.89398866     6.41129915    -8.11811819     1.16677593     0.70316582     0.26687660
Ni     -9.74855948     6.67358446    -3.97911079     0.39700167    -0.46107904     0.25320198
Ni     -2.09821985     2.18280157    -8.00523870     0.77958238    -0.51557223     0.53812634
Ni     -5.92327798     6.62389823    -4.03129558    -0.09470221     0.34222906     0.47755677
Ni     -1.95375606     0.02883897    -6.01767570     0.18962123     0.67775294     0.50377990
Mo     -5.89440245     0.11760481   -10.31432144     0.60720917    -2.09302694     0.13761403
Mo     -9.69573767     8.66848037    -6.28266741     0.30582975     0.87046452    -0.82995384
O      -2.14326406     1.99509804    -2.00109420     1.36748855    -0.43681484    -0.04165184
O      -1.98993708     1.93053826    -6.05919813     0.15393041    -0.67067373     0.64968314
O      -5.97854036     6.92187124    -2.08142201     0.65272267     0.04435963     0.52659301
O      -5.86390947     6.88260285    -6.06477373     0.21767694     0.45506651     1.02827437
O      -5.86172562     1.91204733    -9.86612065    -0.81863839     1.82695058     0.53392671
O      -5.83182062     1.91272613    -6.05121918    -1.54658219    -0.31717905    -0.35791371
O      -9.83027882     6.78528833   -10.08363427     0.06380909     0.66138379    -0.25953815
O      -9.72448822     6.83532363    -5.82654860    -0.64286439     0.00292403    -0.18771746
O      -3.78352306     2.48864869    -4.07933260    -1.07263238    -0.35669661     0.64364070
O      -4.07049527     2.43620118    -7.84183943     0.30370747    -0.26551210    -1.03708310
O      -7.86719677     2.32409731    -3.94625725    -0.74906171     0.43442545    -0.39139219
O      -7.86367713     2.58821611    -8.00199137    -0.18557016    -1.96806547     0.08632823
O      -4.00376589     6.36643115    -3.94830136    -0.21370811    -0.79075534    -0.45896632
O      -3.79704703     6.40516601    -8.04308410    -1.16988233    -0.02388874     0.26002670
O      -7.81950895     6.32274270    -3.96817542    -0.02172858     0.01153480    -0.27644586
O      -7.83967884     6.36234233    -7.97167913    -0.55694433     0.69553708     0.02134047
O      -3.90365368     4.36849850    -1.96686632    -0.77101614     0.18278453    -0.69791919
O      -4.09266437     4.43301712    -6.01761340     0.26824868     0.40181839     0.01400950
O      -7.88607186     4.50592724    -9.94103305     0.10666164    -0.50743404    -1.16955654
O      -7.70389197     4.45915049    -5.96139511    -0.31047543    -0.39221480     1.07656282
O      -4.10632758     0.13928326    -2.11826278    -0.29351237    -0.85313472     0.23794365
O      -7.92638852     8.73893685    -5.83620649    -0.38962261     0.09413434    -1.12319932
O     -11.68230186     8.73201402    -6.10755873     0.05724937     0.35650773     0.33596378
O      -7.75785624     0.06439784    -9.88928527     0.70216627     0.00838583    -0.53584848
O      -2.06084545     4.52684897    -4.00900881     0.39670891    -0.18838349    -0.03370345
O      -1.97010891     4.17308539    -8.00734565    -0.04287361    -0.54041328    -0.16609439
O      -5.96485094     3.91910086    -4.06434058     0.31415167     2.57555700     0.54938202
O      -5.95890056     4.75117549    -8.13176330     1.63054027    -0.03438617     0.41881742
O      -1.96018408     0.20625386    -3.95884849    -0.06274613     0.90689784    -0.14984113
O      -5.88145568     8.72015582    -7.93517573     0.00657151    -0.56823593    -0.93382417
O      -5.95216933     0.26691382    -4.15180533    -0.47239096     0.20837452     0.58353755
O      -9.74255722     8.25972481    -8.06829497    -0.11838804    -0.16302400     0.39857315
