# total energy = -631.00998425 eV

CRYSTAL
PRIMVEC
        0.00279571     0.02951795    -7.98606283
       -7.83802570     0.01298533    -3.99532603
       -3.92160916     8.71933433     0.00634407
PRIMCOORD
56 1
Li     -3.96353411     2.17584666    -2.00322310     0.35766584     0.47242598     0.40611894
Li     -4.01616683     2.27242014    -5.88213093     0.27655254     0.10264656    -0.32558641
Li     -7.86471727     2.32825553    -9.97717380     0.35492525    -0.21019163    -0.31680296
Li     -7.92222535     2.11633282    -5.82311580     0.66768381     0.02151433    -0.33571263
Li     -3.76825338     6.61123318    -1.82130461    -0.46299982    -0.12613641    -0.36892188
Li     -3.92488539     6.70603644    -5.91037654    -0.17979142    -0.34234178     0.10088035
Li     -7.82147858     6.38809733    -9.93367152    -0.30003964    -0.30239513     0.21713953
Li     -7.86863326     6.47622012    -5.92776719     0.38773436     0.04231966     0.22419333
Ti     -1.96484564     2.22567324    -4.12745261    -0.15236143    -0.26269685     1.02044267
Ti     -5.85999960     6.72587639    -8.00590500     0.00961798     0.40828059     0.66914136
Ti     -7.75880350     4.23119642    -7.73608182     0.09249360     0.55330700    -0.80045443
Ti     -7.84648742     4.30149697    -3.72963381    -0.09570134    -0.06652882    -1.29188859
Ti     -3.88378713     4.32366728    -7.67897558     0.21333970     0.65498442     0.53561226
Ti     -3.99508093     4.40750558    -3.72100152    -0.13371259    -0.34517642     0.50719597
Ti     -2.28609358     0.02977811    -2.20047858     1.37923304     0.19294106     0.18753101
Ni     -5.85047062     2.34275345    -8.08587780     0.60494910     0.19541486     0.10426545
Ni     -5.91502059     2.12891429    -4.02792340     0.16095952     0.35439112    -0.06214596
Ni     -9.82590473     6.61789365    -7.88147261     0.13498441    -0.18507290    -0.11123672
Ni     -9.70045080     6.50718520    -3.95831752    -0.54754403    -0.80453351    -0.29380828
Ni     -1.99709198     2.25914561    -7.88504073     0.94737746    -0.67242158    -1.15314177
Ni     -5.85494940     6.37873057    -4.01932329    -1.40680321     0.72331044    -0.08418716
Ni     -2.04277518     0.10430088    -6.00703868     0.29421718    -2.72137317     0.04620320
Mo     -5.99365993     0.06642354   -10.23442015    -1.51001159     0.45256125    -0.53745264
Mo     -5.84303952     0.09045472    -6.40020113    -0.10297025    -0.71116958     1.40680173
O      -1.88151986     1.91145720    -1.97252513    -1.40356351    -0.70883994    -0.33379661
O      -1.97437684     1.86973631    -6.03551759    -0.44010707     1.50772025    -0.00548565
O      -5.91301159     6.79811061    -1.94914701     0.13752772     0.34158356    -0.21625409
O      -5.91520290     6.95798584    -5.90101050     0.19342638    -0.06848078    -0.67898258
O      -5.83880465     2.01048643   -10.10454614    -0.61101034     0.11350365     0.08287836
O      -5.84194037     2.04581901    -5.94519704    -0.40650336    -0.84655176     0.27229709
O      -9.75932592     6.94845004    -9.76472979    -0.16879156    -0.49901449     0.47603901
O      -9.72434537     6.86107425    -6.04720140    -0.69934084    -0.36163670     0.41049439
O      -3.97583615     2.28924109    -3.94186219     0.78247281     0.89339505    -0.35098154
O      -3.86011959     2.42302129    -7.94195493    -0.45042216     0.04914344    -0.25738494
O      -7.87911893     2.33838214    -3.96369671     0.01372834     0.41268577     0.36377092
O      -7.78561198     2.20965577    -8.08473901    -0.62929641     1.55374216     0.44452850
O      -4.03763092     6.37214272    -3.98095792     2.13164953    -0.67501867     0.43508351
O      -3.92531005     6.30969581    -7.89284060    -0.48520927     0.63031225    -0.07479383
O      -7.76997805     6.27530272    -3.90772859    -0.16845257     0.19663398    -0.39959987
O      -7.77573063     6.20349064    -7.85080518    -0.20644209     0.81516044    -0.88505024
O      -3.90665306     4.36485767    -1.92669770     0.20533788    -0.00774486    -1.87919526
O      -3.90174354     4.29515994    -5.90048589     0.08017163     0.08924716    -0.53385014
O      -7.82318929     4.34383646    -9.98798510     0.00657385    -0.11899009     1.18965783
O      -7.86753353     4.24539326    -6.02609197    -0.19138364    -0.02972233     1.09926227
O      -4.08813919     0.10975060   -10.03570362     2.20454015     0.02427886    -0.10352097
O      -7.92170583     8.67123996    -6.05148088    -0.89735337     0.75050780     0.09228356
O      -7.64307553     0.08780566    -5.96729573     1.11470958    -0.63812405    -0.79606836
O      -7.76432657     0.12147415   -10.03560852    -0.11630911    -0.24854706     0.12055136
O      -1.91437638     4.08538953    -4.10016444    -0.58585928     0.08941876     0.38009155
O      -9.78365819     4.60397475   -11.91407129     0.10118459     0.28776532    -0.34064033
O      -5.91837441     4.35963566    -4.19044671     0.78943739     0.07039056     1.00587790
O      -5.84918332     4.32025785    -8.14179506     0.11801730    -0.43181893     0.83386184
O      -1.93250676     0.24918693    -4.07279151    -0.41922150    -0.28623709     0.92081428
O      -5.85997248     8.57856697    -8.05818946    -0.28186248    -0.82353996     0.25563260
O      -9.80309504     8.42947343    -3.99232184     0.23948409     0.01029175    -0.74576468
O      -5.68192600     0.52543694    -8.14610165    -0.86538782     0.20531776    -0.48499426
