# total energy = -630.44848947 eV

CRYSTAL
PRIMVEC
        0.00285542     0.02004370    -7.95977623
       -7.82940539     0.00763210    -3.98158109
       -3.91729101     8.74642787     0.01461334
PRIMCOORD
56 1
Li     -4.17353233     2.42037026    -2.00113035     1.45168161    -0.04532604     0.56038695
Li     -3.92879398     1.84125463    -6.05343578    -0.18761785     0.17305568     0.00885286
Li     -7.94169119     2.39142724    -9.91231212     0.49481460    -0.10948043    -0.31517648
Li     -7.89369623     2.40603350    -5.95242257     0.47343221    -0.16107625     0.05626974
Li     -3.92342779     6.39284937    -2.09548223     0.08329727     0.02995993     1.20701790
Li     -3.91381294     6.40725870    -5.84728295     0.21484712     0.06845008     0.19810181
Li     -7.96657518     6.59594104    -9.87606891     0.34630575    -0.33066274    -0.06451269
Li     -7.85673198     6.60285505    -5.91968151     0.47385352    -0.29044299     0.05625555
Ti     -1.97713013     2.13344098    -4.13056692     1.59732994     0.86615189     1.63214734
Ti     -5.77497011     6.83834517    -7.91900460    -0.20197923    -3.25995644     0.38187865
Ti     -7.85518464     4.39636837    -7.78134550     0.55301981     0.30250791    -0.61622372
Ti     -7.88306266     4.34088276    -3.74732279    -0.12288440     0.87881518     0.99980879
Ti     -3.95257109     4.31252459    -7.69217736     1.24073666     0.29452531    -0.57915591
Ti     -3.96182612     4.34127812    -3.82457054    -0.29316488     1.91107567     0.87601746
Ti     -6.15885405     8.70659431    -2.11175682    -0.64175218     1.22723214     0.17863304
Ni     -5.79105796     2.34850215    -8.07563928    -0.84893043    -0.73584359     1.08986294
Ni     -5.82694621     2.20043540    -3.91738828    -1.23781814     0.16048186    -0.55835957
Ni     -9.78837338     6.56585393    -7.85453894     0.64960545     0.26994727     0.24754052
Ni     -9.73278339     6.55548482    -3.95875684    -0.64143377    -0.40494152    -1.13811035
Ni     -1.85261915     2.04496392    -7.94402054    -1.18276162     0.00661643    -0.54653713
Ni     -5.84772873     6.54637437    -3.88306122    -0.42181221     0.29822149    -0.99554916
Ni     -5.81416832     8.66977067    -5.90266543    -1.38522319     0.18896329     0.41925990
Mo     -6.08767524     0.11956627   -10.25208760    -0.48847997     1.72812386     1.68459542
Mo     -9.79256437     8.68667890    -6.24261514     1.21368166     0.75490307    -1.59895757
O      -1.96278120     1.91653659    -2.01835963     0.40903190    -0.47634771     0.41992759
O      -2.00066024     1.78289338    -6.03195033     0.02909568     0.37079637     0.04414462
O      -5.95450346     6.79341373    -1.96580231     0.04950469    -0.30311647    -0.15252356
O      -5.77224721     6.87599098    -5.84349197    -0.00257332    -0.67166445    -0.71755553
O      -5.95917510     2.13946779   -10.01869745     0.01275672    -1.31725878    -0.27536995
O      -5.84832255     1.90861182    -5.74225516     0.38038294    -0.65738494    -0.96652945
O      -9.81050375     7.13559199    -9.72640295    -0.17875720    -1.78732132     0.52565365
O      -9.77590001     6.76126114    -5.98590813     0.42347300    -0.34370973     0.32553565
O      -3.85006458     2.45175441    -3.88969593    -0.82611179    -1.37420671    -0.91202374
O      -3.87163553     2.40110448    -7.95074877     0.54529658     0.41777988    -0.10889254
O      -7.83241518     2.39575363    -3.95420091     0.42102032    -0.03020950    -0.35807914
O      -7.85432336     2.37469802    -8.01748846    -0.07800914     0.16464856     0.52571233
O      -3.76530833     6.44996832    -3.86195369    -0.98109943    -1.18317099    -1.35105173
O      -3.88945382     6.39081406    -8.01861906    -0.83659098     0.04309728     0.87588386
O      -7.85323209     6.35892512    -4.02658452     0.26824486    -0.07700939     1.04856978
O      -7.80525083     6.35821073    -7.93583012     0.34493374     0.28956518    -0.12505528
O      -4.00103275     4.45900529    -2.04211117     0.61141466    -0.38299268    -0.70034306
O      -3.84967298     4.48657915    -5.94213241    -0.25857199     0.22222069     0.27706225
O      -7.99689988     4.28289002    -9.90496130     0.83360990     0.65318683    -1.43429720
O      -7.68352526     4.46705822    -6.05627961    -0.49573038    -0.83078905     0.95072493
O      -4.07753305     0.10686592    -2.08308270     0.23298597     0.00134389    -0.44258913
O      -7.89411761     8.58651649    -5.94350335     0.80939393     0.58685989    -0.03644481
O     -11.50055518     8.59309510    -6.11654941    -2.07541296     0.39862539     0.40617060
O      -0.05691802     0.13568784    -5.91521911     1.91419455    -0.12404849    -0.99772809
O      -1.91403109     4.21461901    -4.09487627    -1.17478034    -1.31132893     0.49296599
O      -9.75347277     4.69759182    -3.96685464    -0.66639885     0.04951198    -0.50010066
O      -5.93153185     4.62292564    -4.01236869     0.71363482    -0.02251162     0.09678902
O      -5.79666971     4.29930369    -8.09483416    -0.65781107    -0.32285790     0.36672682
O      -1.84586358     0.08438423    -3.89723527    -0.55889640     0.79824337    -0.88701481
O      -5.82134937     8.53304711    -8.13207705     0.04112343     2.84583322     0.45636294
O      -9.88547669     8.52439178    -4.03851957     0.13126260    -0.53362148    -0.13994359
O      -5.71544542     0.47740956    -8.06117802    -0.55383951     0.88436282     0.10276726
