# total energy = -630.58582850 eV

CRYSTAL
PRIMVEC
        0.00279571     0.02951795    -7.98606283
       -7.83802570     0.01298533    -3.99532603
       -3.92160916     8.71933433     0.00634407
PRIMCOORD
56 1
Li     -3.95212406     2.45299333    -1.97877837    -0.12321020    -0.56195792     0.36476897
Li     -4.03783705     2.25216004    -6.08525477     0.20310011    -0.39065087     1.11583818
Li     -7.90071464     2.29746377   -10.01533234     0.78202673    -0.03654750     0.88960488
Li     -7.83771480     2.30045699    -6.01953076    -0.14625588    -0.06636736     0.32721068
Li     -3.90522787     6.41985692    -1.94089573     0.19281943    -0.37677072    -0.16245701
Li     -3.85607733     6.65362624    -6.01181356    -0.15417482    -0.38840247     0.67299048
Li     -7.89423690     6.46848789    -9.92216789     0.25033936     0.04984985    -0.32156439
Li     -7.95147718     6.58872307    -5.89717840     0.41490362    -0.09217091     0.10005857
Ti     -2.03771828     2.35953721    -4.08006078     0.71778601     1.09893746     0.57816092
Ti     -5.78660226     6.73101232    -7.93406813    -0.41046233     0.29737131    -0.40026601
Ti     -7.67977179     4.48846373    -7.69677112    -0.35182974    -1.52784532    -1.10287139
Ti     -7.85161199     4.26613863    -3.66747625    -0.87159467     1.54394142    -0.03778836
Ti     -3.87280135     4.28242816    -7.71790816     0.22856680     0.77097874    -0.70249334
Ti     -4.17759112     4.33806914    -3.82459982     0.83868751     0.03915110    -1.09179035
Ti     -2.09472549     0.16270840    -2.18364594     0.12134028    -0.92812812    -0.44531785
Ni     -5.84701017     2.03114656    -7.92232163    -0.50114737     0.25760680     0.56683890
Ni     -5.98273201     2.22474478    -4.05143629     0.85642284    -0.22905713    -0.27520262
Ni     -9.82506679     6.40580546    -7.91465138    -0.27578597    -0.97278386    -1.07983331
Ni     -9.74911504     6.48763407    -3.93149521     0.15184109     0.03236400    -0.76479082
Ni     -2.01596479     2.11179624    -7.98578683     0.83660086     0.68551247     0.20776946
Ni     -5.89083079     6.65836943    -4.04259891     0.04764362    -0.20554813     0.16973639
Ni     -1.81706793     0.14389005    -6.00234170    -1.08951217    -0.34699382     0.24490310
Mo     -9.79967814     8.72166413   -10.27030130     0.93172648    -0.96737549    -1.92695660
Mo     -9.85240975     8.73915877    -6.33146704    -0.30406277     0.71447957     0.53020547
O      -1.99972368     1.99925389    -2.01159906    -0.00659735     0.85024182     0.25009104
O      -1.87285353     1.96204035    -5.94326166    -0.46893879     0.09044186    -1.35055200
O      -5.67431678     7.04270351    -2.03092044    -0.58898074    -1.36910200     0.34693804
O      -5.96195689     6.96801368    -5.99063401     0.84154515     0.62758730    -0.00953496
O      -5.88451297     1.77287783    -9.73842450     0.60783458     1.41773101    -0.16934896
O      -5.94067520     2.02727099    -6.05072407     0.36546649     0.06164785    -0.17449526
O      -9.79601355     6.72878685   -10.04743040     0.49882037     0.13265885     0.03744614
O      -9.85089966     6.74424106    -5.88875267    -0.03308149     1.01539009     0.47275896
O      -3.93886701     2.31756117    -3.94370058    -0.63804499     0.68084759    -0.73052727
O      -3.93374308     2.32952570    -7.88338152    -0.46575548     0.16834057    -1.28101829
O      -7.84708791     2.35570668    -3.89911691    -0.31314767    -0.05540399    -0.76414069
O      -7.73605573     2.44917229    -7.98792295    -0.46287277     0.58902059     0.38668370
O      -3.98294516     6.19735050    -4.03092342     0.37823905     1.78881792    -0.16681542
O      -3.84645574     6.26651481    -7.89750421    -0.07529011     1.04460351    -0.40710594
O      -7.75637391     6.31895486    -3.96133510    -0.87666284    -0.16669483     0.58206094
O      -7.80299641     6.38841307    -8.03750868     0.06260785     0.27361513     0.44246736
O      -4.01926095     4.29208456    -2.11476613    -0.20201484     0.20146509     2.33839367
O      -3.92558564     4.28765343    -5.98638156     0.09794123    -0.34273055     0.44676547
O      -7.86877472     4.29989432    -9.86673101    -0.08145948     0.52868884    -1.06756249
O      -7.88339044     4.53694560    -5.98058077     0.10257349    -0.42491516     0.25147703
O      -7.89750256     8.65433562    -2.06189764     0.72557879     0.06827256    -0.03754659
O      -4.15411517     0.19170535    -6.11429864    -0.06648985    -0.38553499     0.32751427
O      -7.73786621     0.27879230    -5.99160276    -0.00920545    -0.86571171    -0.71654077
O     -11.51688643     8.67629333   -10.07780998    -2.77581310    -0.29981609     0.58220322
O      -2.03368752     4.27946005    -3.91226516     0.61919659     0.44168925    -0.57527595
O      -1.95061685     4.16715925    -0.12184781    -0.48940327    -0.34258413     0.58569124
O      -6.01769526     4.30706476    -4.14436533     0.20044780    -1.29970528     0.26374299
O      -5.79637006     4.76976367    -8.05261854    -0.15375569     0.20428936     0.43335273
O      -1.96038089     0.44179311    -4.09520499     0.31197268    -1.57208950     0.73258727
O      -1.89920225     0.04215261    -7.95194814     0.07296571    -0.62560175     0.03408763
O      -5.98482143     0.33732516    -4.13452556     0.82300374    -0.11686431     1.34166757
O      -9.79693406     8.22715708    -8.11267962    -0.30563629    -0.38208820     0.11064744
