# total energy = -630.78032840 eV

CRYSTAL
PRIMVEC
        0.00285542     0.02004370    -7.95977623
       -7.82940539     0.00763210    -3.98158109
       -3.91729101     8.74642787     0.01461334
PRIMCOORD
56 1
Li     -4.00915795     2.45037395    -1.94170720     0.34773924    -0.21683765     0.14162362
Li     -3.87353684     2.14952257    -5.98682255     0.11862481     0.18440715     0.02967275
Li     -7.88543238     2.20943466    -9.96728298     0.35581216     0.30350748     0.33863598
Li     -7.78643523     2.35422098    -5.75821751     0.07676282    -0.14965652    -1.14292043
Li     -3.93636864     6.48799713    -1.93473437     0.00420089    -0.17010964    -0.15423160
Li     -3.90787737     6.57284474    -5.89167425    -0.00847682    -0.08207875     0.01830097
Li     -7.79602216     6.52732285   -10.00559878    -0.39310120     0.01322211     0.28542054
Li     -7.80167663     6.72626134    -5.96474505    -0.13747422    -0.48754531     0.35172062
Ti     -1.99326780     2.20945845    -3.87354795    -0.18116164    -0.98311794    -0.58280946
Ti     -5.92859146     6.73140330    -7.94837772     1.19552202    -1.84352143     0.25963101
Ti     -7.82819126     4.32364995    -7.76564035     0.93506114     0.19936759     1.97883547
Ti     -7.78376024     4.35882172    -3.69175321    -0.88401229    -0.65760782    -3.24769712
Ti     -3.98989385     4.42761342    -7.62651076     1.48160625    -1.79573453    -0.49783032
Ti     -4.00480350     4.44839749    -3.81799239     0.59925400     0.19900533    -0.11583580
Ti     -6.05763919     8.74481786    -2.09916806     0.07180288     0.95996794    -1.56286699
Ni     -5.86018719     2.24845202    -7.96133958     1.27847300     1.08727677    -0.23276178
Ni     -5.90527681     2.16373659    -3.94641740     1.68853706    -0.08574884     0.01099291
Ni     -9.77086442     6.70306069    -7.87465721    -0.75372053    -0.03333533     0.04556057
Ni     -9.70342826     6.40429226    -3.97007251    -1.26155808     0.12195653    -0.93448046
Ni     -1.84888778     2.18477276    -7.91224450    -1.01373816     0.13615104    -0.18417711
Ni     -5.90003140     6.49923263    -3.96418452     0.65229185     0.41796619    -1.02412111
Ni     -1.94915276     0.05186543    -6.05906647    -0.33326492    -0.23059050     0.63938955
Mo     -6.01959517     0.08239213   -10.25171400     1.59423453     1.05539390    -1.16455425
Mo     -9.79875392     8.74156303    -6.21806832    -1.15906102    -0.23410517    -0.21341716
O      -1.99657900     1.96828394    -1.90769114     0.88287392    -0.22541659    -0.71304946
O      -1.91384775     1.92892540    -5.96191197    -0.21271038    -0.94135861    -0.77803383
O      -5.86066929     6.88064015    -2.08029903    -0.27907172    -1.41615235     0.45632449
O      -5.84299408     6.89334789    -6.03258167    -0.15247048     0.37555032     0.50329414
O      -5.89094270     2.10061995   -10.02816650    -0.38689064    -1.62974481     0.30622148
O      -5.76053296     1.91682152    -5.83255691    -0.78443061    -0.32035405     0.33382504
O      -9.76751341     6.92184710    -9.73683098     0.33626655     0.58262276    -0.43461250
O      -9.88731157     6.74747582    -5.99805858     1.18092513     0.58734434    -0.03141802
O      -3.92123677     2.45848880    -3.96309477     0.05853933    -1.03197246     0.16977211
O      -3.77104077     2.48716987    -8.00896688    -0.57067743    -0.14130329     0.61957974
O      -7.72664131     2.32028978    -3.97746895    -1.33507636     0.76523379     0.62152245
O      -7.72538987     2.39321679    -7.90857761    -0.74623775    -0.52306604    -0.16829338
O      -3.88529052     6.42176162    -3.98798676     0.37152891    -0.20025755     0.11790480
O      -3.98572011     6.29005312    -7.91804739     0.51894452     1.03351325    -0.05188498
O      -7.81085384     6.26543168    -4.01980691     0.07152532     0.62121210     0.39925630
O      -7.73494115     6.31201402    -7.98779442    -1.57602197     0.38263300    -0.02463855
O      -4.02193358     4.35375129    -2.07625082     0.39855122     0.44972663     0.46229353
O      -3.84953113     4.24201976    -5.88418829     0.12388316     0.55762434    -0.13662157
O      -7.83421815     4.27491279    -9.95977323     0.04041079     0.31319397     2.27598510
O      -7.81378805     4.34493622    -5.98572829    -0.06386963    -0.01545884    -0.97409100
O      -3.94880844     0.18420596    -2.18395024    -1.36548524    -0.81898133     0.54413422
O      -7.91581683     8.71368926    -6.09949944    -0.55622538    -0.19325016     0.21250493
O      -7.75504456     0.08320994    -6.02923607     1.68982601    -0.18890772    -0.12841722
O      -7.77858969     0.10717360   -10.11483288     0.05022529    -0.14125285     0.14990135
O      -1.86847197     4.02087835    -3.97036808    -1.24750469     0.96364310    -0.34700651
O      -9.79615418     4.53461200    -4.04070887     0.60085298     0.19515256     0.37250164
O      -5.85748252     4.47971625    -4.13740147    -1.00637868     0.51427607     0.49389147
O      -5.83760130     4.33278322    -7.99809804    -0.58780625    -0.36972016     0.07473460
O      -1.98967374     0.11607259    -4.09988032     0.29393989     0.99199079     1.30286905
O      -5.89045899     8.47740973    -8.12001691     0.06669843     2.14313690     0.82093716
O      -9.79776519     8.28514018    -4.07262375     0.21279695     0.15642728     1.41673683
O      -5.83350502     0.39916150    -8.04846208    -0.31069550     0.44112271    -1.02985653
