# total energy = -630.57578481 eV

CRYSTAL
PRIMVEC
        0.00279571     0.02951795    -7.98606283
       -7.83802570     0.01298533    -3.99532603
       -3.92160916     8.71933433     0.00634407
PRIMCOORD
56 1
Li     -3.92517072     2.33240004    -1.96416739    -0.02924994     0.28234668     0.15044268
Li     -3.89366824     2.12769826    -6.05036126    -0.38819293    -0.36886306     0.20233088
Li     -7.74292278     1.89025475    -9.97128265     0.03664411     0.72710611    -0.20115135
Li     -7.74223698     2.08232833    -5.93120177    -0.44637848     0.09369388    -0.04097249
Li     -4.09691074     6.41075732    -2.02822529     0.91546246    -0.18992577     0.05165220
Li     -3.79937420     6.50977880    -5.81577243    -0.77011201     0.07493162    -0.07841701
Li     -7.82682683     6.65097338   -10.03102510    -0.02134998    -0.78483813     0.43336587
Li     -7.82031513     6.37627418    -5.84228219    -0.31750177     0.70872896    -0.44146563
Ti     -1.93626140     2.25958906    -4.15239591     0.22023623     1.42344581     0.77726593
Ti     -5.83937365     6.84840186    -7.97918717    -0.69340292    -1.14383878     0.83541228
Ti     -7.78329330     4.37387915    -7.75611122     0.43243860     0.87222144     1.30287455
Ti     -7.83522282     4.38401596    -3.78746767    -0.36776403    -0.05938936     0.15835720
Ti     -3.87617738     4.37926287    -7.64408376    -0.49706903     0.28517301    -0.12013155
Ti     -3.97016836     4.41428738    -3.83952772    -0.03448062     0.52785605     1.08240528
Ti     -2.20034393     0.02711543    -2.19153664     1.73607960    -0.62796018     1.17596387
Ni     -5.77373191     2.39313665    -8.05014464    -0.03652094     0.09969599     0.80122859
Ni     -5.86142747     2.31897333    -4.09500040    -0.23864540    -1.38905997     0.22058860
Ni     -9.81308832     6.44928450    -7.88064053     0.22244912     0.15740164     0.49527417
Ni     -9.90032739     6.39914110    -3.87033150     0.90965716     0.08807428    -0.72244547
Ni     -1.89739108     2.21276511    -8.03395572     0.21432795     0.39947038     0.69049514
Ni     -6.02968683     6.50255776    -4.04533469     1.30957343     0.50940102     0.19847245
Ni     -2.03646862     0.04356102    -5.90691995     0.13775264    -1.07496923    -0.09556449
Mo     -9.84718988     8.63396858   -10.25507710    -0.61112271     0.95226985     1.70545686
Mo     -9.79865721     8.61284513    -6.36483724     1.14552707     0.96497923     0.24171897
O      -1.96124159     1.86013764    -1.90746962     0.07590958     0.73929747    -0.59787728
O      -1.83409323     1.86074566    -6.00750174    -0.37272343     0.51689800     0.07162814
O      -5.88095743     6.79394748    -2.04714063    -0.54434551     0.32606388     0.72528359
O      -5.90720701     6.96309980    -5.94413396    -0.21908017    -1.04399513     0.75588967
O      -5.82265598     1.92483933   -10.07688207     0.12016376     0.65097442    -0.20814072
O      -5.89924198     2.02577002    -5.96561396     0.96411940    -0.41429645    -0.59687892
O      -9.71308582     6.77088995    -9.79988466    -0.16434740     0.18876307    -0.36907667
O      -9.89577858     6.78827034    -5.92500195     0.25386035    -0.83116125    -0.31613455
O      -3.87005726     2.51725941    -4.19063989     0.13490154    -1.62928641     0.62081352
O      -3.76646754     2.46571522    -7.86778031    -0.73064182    -0.17799441    -0.73688025
O      -7.80062389     2.44457082    -4.00882404    -0.44914538    -0.70777309    -0.10844146
O      -7.74311310     2.50891495    -7.85589850    -0.77794691    -2.22489290    -1.30055857
O      -3.96531841     6.33861409    -3.96000305     0.33169236     0.42056061     0.09569893
O      -3.99662698     6.42415735    -7.85704386     0.31380631    -0.12727997    -0.68928648
O      -7.94059788     6.40251848    -3.96169589    -0.11783369    -0.45757778     0.23089457
O      -7.76028437     6.27175873    -7.89219421     0.07133748     1.78340203    -1.04327824
O      -4.00310176     4.38926617    -2.06161227     0.01617065    -0.04812983    -0.02287345
O      -3.88354212     4.58099429    -5.90177515     0.21322449    -0.17990825    -0.27987285
O      -8.01592203     4.41369550   -10.02687160     0.38602214     0.31165219     0.39699897
O      -7.97821019     4.57233612    -5.99358293     0.11779795    -0.94197713    -0.10973272
O      -7.88791273     8.69778002    -9.98363925    -1.24827266    -0.20038674    -0.11447599
O      -7.94683449     8.59535044    -6.05024698    -0.90878121     0.69511482     0.50760868
O     -11.57775442     8.71239883    -6.18871808    -0.91265159     0.30294618     0.26124065
O     -11.58070265     8.60827590    -9.76811001     0.55051626     0.53890066    -0.69288454
O      -1.92364847     4.15948504    -3.96983669    -0.56352839    -0.38891800    -0.37550754
O      -2.05852624     4.34223254    -0.08329986     1.59131365     0.17775398    -0.01132177
O      -5.91556268     4.20123534    -4.11034977    -0.15911963     0.44270496     0.11238624
O      -5.80416585     4.25763419    -7.88665863    -0.58587680     0.27379182    -0.64575351
O      -2.06665093     0.31459556    -3.94893235     0.20046190    -0.05154524    -2.09155225
O      -5.87903307     8.61207668    -7.83918357     0.22455939     0.79528609    -0.98515723
O      -5.96808514     0.33629817    -4.01552810     0.23148054    -0.21382080    -0.66933116
O      -5.61654055     0.60271447    -8.08309470    -0.86841509    -1.31034113    -0.48950886
