# total energy = -630.11144847 eV

CRYSTAL
PRIMVEC
        0.00285542     0.02004370    -7.95977623
       -7.82940539     0.00763210    -3.98158109
       -3.91729101     8.74642787     0.01461334
PRIMCOORD
56 1
Li     -4.02436773     2.42983280    -1.88832614     0.59827939    -0.30945075    -0.49490009
Li     -4.08290659     2.33538978    -5.96716566     0.60542889    -0.10163704     0.01553027
Li     -7.76904900     2.12204172    -9.98298340    -0.07986512     0.05039061     0.01875009
Li     -7.87390976     2.20815975    -6.05421726     0.13359496     0.21263642     0.57238767
Li     -4.00549286     6.68978047    -1.89878304     0.03344451    -0.08063999    -0.35120231
Li     -3.87984506     6.51112522    -5.84614969     0.02199404    -0.17109047    -0.59855807
Li     -7.81557254     6.78750099    -9.80842520    -0.77509995    -0.89899502    -0.68089130
Li     -7.67372606     6.22847978    -5.82527472    -0.25712044     0.32850116    -0.26397562
Ti     -1.94624250     2.42548319    -4.12300179    -1.27988229    -0.35327029     0.57297295
Ti     -5.99188042     6.91918651    -7.93755906     1.06590463     1.00259703    -0.18330887
Ti     -7.65134946     4.39075744    -7.83472467    -2.13769398    -0.10395493    -0.27981602
Ti     -7.95817116     4.33859542    -3.73215575     0.98433748     0.95518384     2.25859128
Ti     -4.04685697     4.36511204    -7.71359705     2.18330926     0.22293819    -0.10032002
Ti     -4.11752003     4.43824796    -3.71329744    -0.05510969    -0.81656609    -0.23791164
Ti     -1.93444673     0.12525104    -2.13734793     0.12688080    -0.68456937    -1.38694629
Ni     -5.84986625     2.29846182    -8.00289968     0.14433496    -2.62335551    -0.66249222
Ni     -5.89432735     2.20510687    -4.03432074     0.13698845     0.51961570     0.50111377
Ni     -9.88432298     6.30105708    -7.72127030     0.81789175     0.02728797    -1.00849807
Ni     -9.80006779     6.31924795    -4.00651485     0.11918556     0.13774285     0.28666657
Ni     -1.93121504     2.11076047    -7.88430838    -0.02692825     0.96714281    -1.14728025
Ni     -5.79576443     6.53572097    -4.08558848    -1.44407645     0.60507816     0.81689177
Ni     -5.86463497     8.74763729    -5.85508667     0.21083773     1.26309537    -0.62867407
Mo     -9.81073797     8.74889652   -10.20888343     0.99784199    -1.78085050     0.58467060
Mo     -9.69632648     8.74360059    -6.23980595     0.24922538    -0.55622166    -1.39031847
O      -2.00276979     1.96958213    -1.98766687     0.40351597     0.69931808     0.05462408
O      -1.98077755     1.93010322    -5.98318487    -0.00749610    -0.62172404     0.16004347
O      -5.96698050     6.94756672    -1.88401914     0.21299512    -1.24088979    -0.46724982
O      -5.72356044     6.86959070    -5.95272047    -1.06061132     0.38329064     0.88315942
O      -5.87067578     1.99604233    -9.89921015     0.44314283     0.35310802    -0.68392298
O      -5.96127496     1.90913486    -5.99880921     0.14127515     0.94481822     0.09951709
O      -9.88167982     6.79498406    -9.99680089     0.45132381     1.59231611    -0.32183039
O      -9.79692397     6.91239514    -5.94660833    -0.40155383    -1.40714370     1.13688357
O      -3.93596524     2.40479540    -4.03305106     0.23351187     0.92035427     0.15926910
O      -3.79813633     2.34147839    -8.02016050    -1.27311098     1.22550345     1.30581631
O      -7.80907526     2.42044682    -3.95113196    -0.30533237    -0.61673388    -0.14704929
O      -7.84199449     2.42945098    -8.07742209    -0.39847512    -0.26271159     0.57946638
O      -3.92308752     6.34373233    -4.01298156     0.21431471    -0.06714125     1.20686752
O      -4.08860745     6.36763503    -8.04547349     0.34166654    -1.10686548     0.92610613
O      -7.78158806     6.32025048    -3.97710080    -0.22713102    -0.39957839    -0.42786120
O      -7.87010021     6.36944983    -7.84473458     0.85913382     0.34521419     0.25538018
O      -3.74390608     4.36010966    -1.99630808    -0.53072813     0.35113306     0.16692981
O      -3.95577643     4.42776023    -5.91544873    -0.00570330    -0.35571744    -1.27872887
O      -7.92864755     4.63466263    -9.86008300     0.06666460    -0.70315036    -1.57716683
O      -7.67946630     4.34163602    -6.06038296    -0.04649924     0.21673195     0.35913830
O      -7.93001795     8.68335698    -9.87870324    -0.84754312     0.52107438    -0.24955028
O      -7.94399363     8.71834360    -6.05201478    -0.32204434     0.20536823     0.05574447
O      -3.96504305     8.64639182    -1.97344215     0.89581148     0.90386259    -0.52279823
O      -7.69696463     0.18379289   -10.00928248     0.15387575    -0.83870856     0.07727580
O      -9.75730372     4.33176369    -7.92774435    -0.26938144    -1.14357580    -0.46829895
O      -1.96390001     4.27189454    -0.08694216    -1.04470303     0.16118001     0.29491313
O      -5.96644043     4.11069336    -3.88134011     0.35859210     0.20580809    -0.30711199
O      -5.83722851     4.13889958    -8.19057581     0.49537749     0.91707122     0.18517220
O      -2.17985731     0.29543825    -4.01600600     0.95951814     0.07073090     0.51971759
O      -5.86518730     8.74771641    -7.90710875    -0.20917524    -0.48698750     0.49663672
O      -5.70566403     0.31457447    -4.03914999    -0.72268577     0.31768576    -0.57803312
O      -5.77861079     0.28473618    -8.09257495    -0.90664764     1.43665536     1.64343271
