# total energy = -630.94007392 eV

CRYSTAL
PRIMVEC
        0.00285542     0.02004370    -7.95977623
       -7.82940539     0.00763210    -3.98158109
       -3.91729101     8.74642787     0.01461334
PRIMCOORD
56 1
Li     -3.95356637     2.06384597    -1.99644108    -0.06801068     0.36168956     0.39314922
Li     -3.98334882     2.18292078    -6.06566998     0.01179376    -0.09172684     0.47422109
Li     -7.77799454     2.30032581    -9.92296046    -0.04277692    -0.06987989    -0.33602668
Li     -7.75794661     2.22211399    -5.87899935    -0.37230861     0.03340297     0.06675868
Li     -3.98487288     6.33504044    -1.80080600     0.38105202     0.11970008    -0.47503716
Li     -4.02798065     6.38059993    -6.00597309     0.12828352     0.29843737     0.39832310
Li     -7.73347284     6.49854000    -9.79509280    -0.86257678    -0.15866921    -0.67334127
Li     -7.92203507     6.56603697    -5.84174913     0.29624373    -0.26739045    -0.20226841
Ti     -1.90777937     2.27156157    -4.04081425    -0.31099820     0.67300765    -0.17988325
Ti     -5.88934537     6.69642961    -7.99783627     0.55236635     0.77483095     0.86330439
Ti     -7.71080601     4.37166251    -7.64725673    -0.80278271     0.81411179    -0.13786671
Ti     -7.76565808     4.36194203    -3.67521568     0.57330238     1.16308726    -0.43495966
Ti     -3.79008540     4.35236751    -7.66297780    -0.30105479     0.48079245    -1.83650425
Ti     -3.94171707     4.38305684    -3.74245528    -0.94138643     0.63336646     0.29674587
Ti     -2.05770794     0.03446231    -2.20019278    -0.58189942    -0.32275170     0.41457837
Ni     -5.87414376     2.30341601    -8.02806282    -0.31697386    -0.61882860    -0.27495429
Ni     -5.79459529     2.14970596    -4.02198744    -1.18271262     1.14695849     0.11770771
Ni     -9.94741364     6.51039252    -7.86283313     1.25234995     0.27725668    -0.31864464
Ni     -9.71927793     6.53443491    -3.83751894     0.11270478    -0.59855333    -0.61069226
Ni     -1.88855327     2.31158660    -7.90122735    -0.50771694    -0.06672509    -0.74240111
Ni     -5.78708096     6.78550647    -3.96292040    -1.00273031    -1.11600609    -0.74322410
Ni     -6.06091107     8.71414210    -5.98513783     1.02218486    -0.21002133    -1.35046590
Mo     -9.89484050     8.65492900   -10.22362694    -0.35500693    -0.49158132     0.97072491
Mo     -9.85169782     8.69776831    -6.26955914    -0.31960476     0.30791855    -1.46885650
O      -1.90974559     1.95421101    -1.97449687    -0.45820969    -0.51877449    -0.62003049
O      -2.04341103     1.80650581    -6.03423982     0.26304768     0.57439811     0.22569496
O      -5.91041178     6.77276422    -2.04172439     0.88619517     0.55307083     0.11824085
O      -5.97398964     6.86697426    -6.02793648     0.20731296     0.16319211     1.20039086
O      -5.89267140     1.97406536   -10.03985211     0.38197367    -0.31646668    -0.14461005
O      -5.89764583     1.95247589    -5.90810510     0.27302527    -0.21216153    -0.59267139
O      -9.65563802     6.75535204    -9.88308200    -0.89915422     0.72954336     0.30177661
O      -9.87255047     6.85752935    -5.86257859    -0.22191806    -0.47562300    -0.10433252
O      -3.91772546     2.48049139    -3.96931783     0.76617948    -1.71236195    -0.33613853
O      -4.04867028     2.48930388    -7.95343288     1.50061950    -0.60045600    -0.12379789
O      -7.81946423     2.47020457    -3.95705051    -0.12753132    -1.06148387     0.04497413
O      -7.77403801     2.39661351    -7.98865490    -0.86800962     0.05867928     0.29531120
O      -3.95267725     6.37848964    -4.15729275     0.03685889     0.11289255     1.41545685
O      -3.92689660     6.41202426    -7.86395234    -0.19495219    -0.64067345    -0.48083751
O      -7.71547009     6.36177368    -3.96899050    -0.60479089    -0.06561511     0.59552503
O      -7.81379973     6.33894521    -7.91146835    -0.44802739    -0.18304377     0.06831769
O      -3.96550458     4.40830970    -1.99058602     0.07306813     0.62720795     0.38532031
O      -3.77394520     4.46279405    -5.94980845    -0.32593311    -0.32474294     1.06092101
O      -7.94458022     4.31929927    -9.86855338     0.07315915     0.29046097    -0.19076172
O      -7.98342231     4.41785482    -5.91784769     0.26823609    -0.26850874    -0.35145670
O      -7.91900150     8.72669925    -2.04111570     1.47985496     0.25861363    -0.22605221
O      -8.01804525     8.73375335    -6.05070423    -0.49112586    -0.12414706    -0.04448308
O      -7.83109206     0.03733486    -6.10743462     1.36582070    -0.24926436     0.04188465
O     -11.66486605     8.65156496   -10.07513100     0.76453933     0.05354991     0.10625672
O      -2.04953533     4.19617746    -3.98310384     1.82702499    -0.84333906    -0.06577581
O      -9.77702433     4.45615331    -4.09513852     0.66907471    -0.10118572     0.62247474
O      -5.83839872     4.18770528    -3.99823976    -0.99648273    -0.44712240    -0.24609056
O      -5.86429895     4.38461070    -7.84707032     0.45498772     0.09477602    -0.27665826
O      -1.89305876     0.27842289    -4.12871983    -0.57893215    -0.11345674     1.50497508
O      -5.80994580     8.54161332    -8.03340781    -0.64611147    -0.26641474     0.22938797
O      -5.79020341     0.23622214    -4.07340383    -0.31447476     0.55845306    -0.31169034
O      -5.82843429     0.35955082    -8.17234221    -0.43142311     0.99937091     1.66007839
