# total energy = -630.62946072 eV

CRYSTAL
PRIMVEC
        0.00285542     0.02004370    -7.95977623
       -7.82940539     0.00763210    -3.98158109
       -3.91729101     8.74642787     0.01461334
PRIMCOORD
56 1
Li     -3.79952694     2.22709759    -2.01864405    -0.81046677     0.18752622     0.23731904
Li     -4.03638205     2.30287918    -6.10627733     0.19767700    -0.37970294     0.16172532
Li     -7.71548149     2.34024157   -10.01733278    -0.73245321    -0.00718264     0.21093757
Li     -7.80695725     2.33097293    -5.83630381    -0.33904808     0.01775859    -0.32337498
Li     -3.79062314     6.35969467    -2.09168754    -0.54140116     0.14556751     0.78756282
Li     -3.93017948     6.34300236    -5.85196205    -0.04035362     0.26404647     0.32928204
Li     -7.80175461     6.47479518    -9.80443095     0.10492393     0.01654642    -0.27271481
Li     -7.90904143     6.53980778    -5.90075077     0.59883974    -0.00095027     0.36596636
Ti     -1.96483050     2.15037255    -4.03636471     0.21333224     0.69063064    -0.95528429
Ti     -5.81892140     6.80777796    -7.91166623    -0.49976095    -0.09433686     0.38201570
Ti     -7.84981149     4.40846942    -7.78141032     0.03178660    -0.43921086     0.42493396
Ti     -7.65917201     4.44777434    -3.74413012    -0.98585729     0.83870454    -1.40907663
Ti     -3.94200564     4.39893828    -7.75491753     0.89954561    -0.53134734    -0.64511280
Ti     -4.00891052     4.27911857    -3.87462448     1.52134078     0.89293279     0.61821409
Ti     -2.14796227     0.03564347    -2.13363313     1.41229726    -0.35858170     0.02243106
Ni     -5.97698386     2.33209344    -8.13297958     1.27451095     0.34184132     0.99954316
Ni     -5.84481120     2.17774995    -4.06433518    -0.01417763    -0.98948082     0.13081355
Ni     -9.73579364     6.49357060    -7.77645290    -0.51089427    -0.10173273    -0.03534683
Ni     -9.70932471     6.49383923    -3.91361887     0.22767549    -0.68845497     0.11640336
Ni     -1.91434375     2.45478062    -7.83951599     0.22637344     0.20201207    -1.83165317
Ni     -5.90152556     6.58215470    -3.87595373     1.74012439     0.92044452    -0.15758678
Ni     -5.88908032     8.73506213    -5.89635483    -0.22450857     0.58509299    -0.69302517
Mo     -9.87666283     8.71538783   -10.13674804    -0.73294186     0.36815996    -0.63740652
Mo     -9.83410176     8.69102750    -6.29058335    -1.76245014    -0.43094400     0.08094928
O      -1.95444336     1.94307560    -2.03881516     0.59864323    -0.14208168    -0.29265329
O      -1.93144973     1.87031728    -6.14657433    -0.08805403    -0.63337880     2.35669796
O      -5.88554243     6.86136635    -1.83923861    -0.11876248    -1.26903599    -1.01131128
O      -5.97148535     6.95502798    -5.71188470     0.89025865    -1.32782206    -1.13136755
O      -5.86865497     2.03970596   -10.01799530     0.36370322    -0.65318516    -0.63000187
O      -5.97099293     1.91571847    -5.97630914     0.25278564     0.19992137    -0.13573225
O      -9.61265354     6.91273940    -9.75548644    -1.04548446    -0.33806429     0.16388557
O      -9.76848439     6.77750237    -5.78853860    -0.39362736    -0.16614484    -1.08288492
O      -3.87298369     2.16614723    -4.06908710    -0.40643245     1.12469611     0.05582875
O      -3.83639928     2.54880967    -8.11890342    -0.12829190    -0.90963306     1.07099145
O      -7.77563417     2.54138719    -3.92404338    -0.73755433    -1.24212177    -0.40084631
O      -7.87492411     2.36185184    -7.99932891     0.23723520     0.71172278    -0.24137396
O      -3.84270931     6.27478770    -3.91963346    -0.09866541    -0.27842058    -0.67575803
O      -3.98266943     6.32949122    -7.85732028     0.61996834     0.63284197    -0.19222043
O      -7.68699500     6.43739502    -3.94864489    -1.79898159    -0.63424365     0.27359982
O      -7.74426674     6.39060449    -7.83658368    -0.52569578    -0.52599422    -0.21380238
O      -3.91993783     4.31922982    -2.11661807     0.08237519     0.16112515     0.12739766
O      -4.02242170     4.38828326    -6.00299218     0.29738549    -0.21728468     0.30285128
O      -7.95992975     4.53018873   -10.00595189     0.83283496    -0.18881417     2.15172750
O      -7.96398494     4.37405345    -6.01874073     0.04062918     0.17360125    -0.59171436
O      -3.94530124     0.04621582    -9.95390653    -0.72775991     0.24493316    -0.02910671
O      -8.07512473     8.69730684    -6.01119116     0.78185946     0.13111875    -0.17746015
O      -3.90629444     8.52829433    -2.18137907     1.56297201     0.65884242     0.66736862
O     -11.64787085     8.69649011    -9.94430353     0.92676786    -0.09335418    -0.18218315
O      -2.00736726     4.10987976    -4.26160480     0.37545812    -0.51080432     0.98509698
O      -9.68902377     4.48114783    -3.96101939    -1.22952310     0.16384552    -0.22499192
O      -5.83308283     4.07369726    -4.18602315    -0.58462160     0.15103759     0.30648882
O      -5.87430743     4.24286302    -8.04000271    -0.97861935     0.26127939    -0.12904578
O      -1.91443521     0.12281786    -4.00741379    -0.35579498     1.25900966     0.16711564
O      -5.82818113     8.57533262    -7.89702452     0.00656001     0.63080338     0.35525366
O      -5.89540395     0.16720961    -4.04582685    -0.15838372     0.53689270     1.08738525
O      -5.93350129     0.49253011    -8.08599851     0.37320030     0.35107888    -0.78778749
