# total energy = -630.84113382 eV

CRYSTAL
PRIMVEC
        0.00279571     0.02951795    -7.98606283
       -7.83802570     0.01298533    -3.99532603
       -3.92160916     8.71933433     0.00634407
PRIMCOORD
56 1
Li     -3.97576362     2.32107076    -1.95762584     0.27087763    -0.35482418     0.44016574
Li     -3.79554263     2.10193865    -5.94438708    -0.27414056     0.48185162    -0.49914658
Li     -7.86695119     2.24027669   -10.00501244     0.57925822     0.23327792    -0.16317258
Li     -7.60252418     2.40069820    -5.98664625    -0.52518215     0.10042622     0.49575676
Li     -3.91109686     6.30781762    -1.88200027    -0.07311083    -0.17463796    -0.48466525
Li     -3.96639540     6.67124040    -5.93627039    -0.02070587    -0.35258435     0.26990635
Li     -7.90378485     6.30470204    -9.91356914    -0.01852477     0.50891950    -0.08219558
Li     -7.78699497     6.37661689    -6.00543514    -0.24388930    -0.05585048     0.87854338
Ti     -1.99485067     2.14748697    -4.10825353    -0.07287324     0.43284478     0.94402232
Ti     -5.95202718     6.79322560    -8.03044298     0.61910147    -0.42610514    -0.23672783
Ti     -7.96829132     4.38927071    -7.72357482    -0.10184408    -0.01205668     0.72356153
Ti     -8.04625135     4.44785519    -3.75930693     0.16668909    -0.56907571    -1.71157439
Ti     -4.09019383     4.29346913    -7.60269700     1.08415148    -0.25682067    -1.58667923
Ti     -4.08772859     4.34894690    -3.76057186     0.24023070     0.62917746     0.36454026
Ti     -1.68057261     0.06741444    -2.16915732    -0.77960010    -1.65154008     0.13193084
Ni     -5.90611329     2.28846968    -8.00881151     0.89553068    -0.18019381    -0.52736180
Ni     -5.83184112     2.28427978    -3.99622668    -0.56570500    -0.04657080     0.32777155
Ni     -9.85780728     6.68940893    -7.90249734     0.16438241    -0.00408841     0.27810807
Ni     -9.92634008     6.59404196    -4.12512595     0.95707971    -0.72441115     0.65506914
Ni     -1.85794560     1.97527975    -7.97334721    -0.54055513     0.62507650    -0.62176744
Ni     -5.91678163     6.63079000    -3.96565588    -0.11569248    -1.02463116    -0.21689724
Ni     -5.77649800     8.66038243    -6.08387912    -1.06274375     0.29610453     1.00451643
Mo     -9.84468213     8.71913542   -10.27462342     1.63637682     0.73956679    -0.00003903
Mo     -5.64176932     0.08073183    -6.23093182    -0.80793744    -0.94176159    -1.80744567
O      -2.02359914     1.87931393    -2.03189553     0.72288330     0.26809157     0.29820351
O      -1.90102485     1.80945270    -6.07288377     0.40856695     0.13177884    -0.05824223
O      -5.93095085     6.61799230    -1.97615824     0.11149398     1.62623099    -0.24704531
O      -5.96528122     6.74220983    -5.98133903     1.23441478     1.30728744     0.07235321
O      -5.92626803     1.98799307   -10.11672076    -0.38464858     0.01090862     0.32764892
O      -5.71254661     1.98247381    -5.85359987    -0.81501965    -0.80186436     0.26961258
O      -9.84907627     6.90438061    -9.74974740    -0.36545573    -0.38645118     0.04301416
O      -9.73954216     6.83301447    -6.06047049    -0.25465598     0.35964440     0.12652583
O      -3.86368105     2.23042963    -3.97016237    -0.85276221     0.75042380    -0.24331758
O      -3.84301364     2.35384638    -7.94551234    -0.41971854     0.59654812     0.03329217
O      -7.82530279     2.46568326    -4.09296868     0.14407104    -0.20007838     0.64702509
O      -7.76316850     2.42679541    -7.87508734    -1.42373261     0.08377726    -0.83895406
O      -3.92461622     6.31852092    -3.92525431    -0.02707682     0.02551925    -0.04492248
O      -4.03580188     6.24340087    -7.98024769    -0.31818345     0.84248624     0.59087356
O      -7.87105649     6.36984315    -3.95368159     0.05895398     0.53035849    -0.12839760
O      -7.81915270     6.42422980    -7.89228591    -1.21425477    -0.73971055    -0.66775176
O      -3.88306259     4.23331368    -1.99425883    -0.35803848     0.23670385    -0.54867140
O      -3.91284809     4.19780024    -5.87938062     0.37655200     0.09387684     0.39759265
O      -7.96226652     4.39830934   -10.01414061     0.17833614    -0.38318880     1.97331912
O      -7.88449145     4.39818350    -5.94176729    -0.11080900     0.16838726    -1.46677567
O      -4.15361831     0.08111754    -9.89651035    -0.96426393    -0.19096206    -0.75401746
O      -3.88181733     0.03538930    -6.10991470    -0.09547246    -0.18573500    -0.27891892
O     -11.68059855     8.67090407    -6.01151971     0.93826948     0.43362750    -0.18839463
O      -7.82839207     0.03629151   -10.05839371     0.70885784    -0.27444350    -0.29087602
O      -2.04319678     4.08435791    -3.98457334     1.09431633    -0.65942546    -0.34640549
O      -9.88607135     4.78882076    -4.06042750    -0.59304561    -0.95028669     0.36525231
O      -5.93296128     4.43915509    -4.07620874    -0.48735186     0.01203222     0.42402473
O      -5.97813192     4.26424761    -7.93894823     0.55861470    -0.13194177    -0.11466600
O      -2.03467081     0.16222300    -4.06061734     0.57844409    -0.07292391     0.87852041
O      -5.87296264     8.60541029    -8.13322458     0.07088229    -0.31135124    -0.17425133
O      -9.79726391     8.41168990    -4.15549249    -0.20884680     0.92092259     0.37976462
O      -6.02855405     0.43853156    -8.04780791     0.47437718     0.38172251     1.03342557
