# total energy = -630.77905210 eV

CRYSTAL
PRIMVEC
        0.00285542     0.02004370    -7.95977623
       -7.82940539     0.00763210    -3.98158109
       -3.91729101     8.74642787     0.01461334
PRIMCOORD
56 1
Li     -3.86756904     2.50915262    -2.07361333    -0.45354218    -0.37191200     1.27673690
Li     -3.89159874     1.98972756    -5.90433040     0.01545818    -0.06900761    -0.07093527
Li     -7.86780902     2.23659250   -10.07308980     0.41431509     0.23573628     0.70063204
Li     -7.69977307     2.17080679    -5.89216779    -0.21203013    -0.08708020    -0.12338188
Li     -3.79717372     6.44134839    -1.90056876    -0.73939840    -0.01688624    -0.32957965
Li     -3.88664775     6.51924278    -5.93823471    -0.08440034     0.09586961     0.21731685
Li     -7.92390377     6.66995517    -9.92045677    -0.04220246    -0.31392601    -0.15435764
Li     -7.80809268     6.50866264    -5.88434134    -0.08839028     0.21474847     0.11164294
Ti     -2.02000184     2.32071483    -3.95559480     0.42262955     0.12480607    -0.34426398
Ti     -5.86250884     6.71174446    -7.97344320    -0.06677878     1.65857772     1.24968674
Ti     -7.85309219     4.35632514    -7.70427374     0.65211090     0.46141227    -0.46279076
Ti     -7.83075263     4.35515304    -3.77996606    -0.42824868    -0.17251831     0.83266420
Ti     -3.91486650     4.25899752    -7.63992194    -0.07717627     0.55815866    -0.27557165
Ti     -4.02624553     4.56382994    -3.87727581    -0.12936824    -1.56230807     1.00956518
Ti     -2.13509210     0.03255445    -2.22953138    -0.77993219     0.33957900     1.82587654
Ni     -5.88905494     2.28110220    -7.94377854     0.46666479     1.08864295    -0.85938465
Ni     -5.88741255     2.16109433    -3.91554227     1.14746688     0.27180260    -0.13116651
Ni     -9.72151000     6.49187571    -7.86819395    -1.08233527     0.69338963    -0.71051795
Ni     -9.93094944     6.37255398    -4.08141473     1.75585908     0.30048972     0.43342798
Ni     -1.89810992     2.21865428    -7.87739422     0.07466740    -0.53144549    -0.64682203
Ni     -5.90909906     6.47506568    -4.01959907     0.18903557     0.31488082     0.33717668
Ni     -1.95371734     0.07149701    -5.88942110    -0.04626879    -1.05245542    -1.39489272
Mo     -5.98635330     0.07836788   -10.28020172     0.40333615     0.39158080     0.41680134
Mo     -9.72618459     8.73763237    -6.29357822    -0.00283276    -1.74795794    -0.41510852
O      -1.73980280     1.87894861    -1.97437605    -1.36666541     0.19580011    -0.14515012
O      -1.92283743     1.93181989    -5.90619310    -0.47370525    -0.22064364    -0.23631236
O      -5.87048397     6.93244210    -1.89384062     0.05109960    -1.03817731    -0.96746250
O      -5.80530777     6.92656917    -5.91892823    -0.52395834     0.33902966     0.06065390
O      -5.90228678     2.08821850    -9.97233913     0.01318999    -0.98520316    -0.26013360
O      -5.79248779     1.83275908    -5.89847005     0.13349124     1.78928166     1.26418762
O      -9.87634830     6.93001009    -9.74866413     1.03075323     0.77363175    -0.13379025
O      -9.82947204     6.79830193    -6.05610776     1.27164632    -0.85576528     0.89259494
O      -3.94559692     2.42720496    -3.89232811     0.36002196    -0.41953594    -1.13979411
O      -3.84034988     2.37349191    -7.95835901     0.02516330     0.40761888     0.36618347
O      -7.71050728     2.32166059    -4.02767896    -1.33730077     0.79988822     0.30544399
O      -7.82752832     2.45030879    -7.90094722    -0.37374342    -0.53768363    -0.25331147
O      -3.90513215     6.41916682    -3.95806314     0.12802765     0.61338548     0.23738530
O      -3.96396715     6.31144395    -7.87507134    -0.81166766    -0.16488976    -0.83932693
O      -7.80382725     6.29504141    -3.92707768    -0.46101459     0.38013535    -0.39901991
O      -7.80876480     6.38010083    -7.96955445     0.22010050    -0.47247009     0.20142349
O      -3.86295523     4.38730687    -2.09251651    -0.04798481     0.71335602     0.07967080
O      -3.64614939     4.56328311    -5.92478368    -0.79345383    -0.75867330     0.51299830
O      -7.66516595     4.32121870    -9.98325725    -0.80992884     0.06809105     0.03049757
O      -8.06398964     4.42832817    -5.98263680     0.69980530     0.14030415     0.51293269
O      -4.05705376     0.18628188    -9.98112139     1.19042135    -0.63134546    -0.26754115
O      -7.86202915     8.65843681    -6.01298508    -0.55893915     0.24313063     0.13541151
O     -11.49758495     8.69704789    -6.00690553    -1.09993981     0.07882027     0.03045524
O      -7.75546785     0.14108892   -10.05873943    -0.02957137     0.07286811     0.19780811
O      -1.97833789     4.17372394    -3.99974229     0.31666022    -0.17935499    -0.39923694
O      -2.00624930     4.48724860    -7.92720848     0.79157311     0.12993354    -0.60995169
O      -5.91106109     4.44579563    -4.11101369     0.36891481     0.19939861    -0.33512301
O      -5.86434976     4.23765237    -7.85713030     0.04975837     0.30891243     0.16755108
O      -2.03082249     0.17337101    -4.00680414     0.37108068     0.52915582    -0.63265467
O      -5.87468543     8.59013518    -7.86387575     0.21692932    -0.83768305    -0.06308294
O      -9.76140021     8.34257314    -4.05476896    -0.17777683    -0.34337598     0.41609334
O      -5.87048263     0.51050746    -8.04455770    -0.03926748    -0.79512221    -1.15271772
