# total energy = -630.41986921 eV

CRYSTAL
PRIMVEC
        0.00279571     0.02951795    -7.98606283
       -7.83802570     0.01298533    -3.99532603
       -3.92160916     8.71933433     0.00634407
PRIMCOORD
56 1
Li     -4.04846407     1.97502870    -1.92994466     0.14477623     0.22805322    -0.17991575
Li     -3.83275293     2.30621449    -5.92041309    -0.77994105    -0.03026578    -0.45789376
Li     -7.84441892     2.09945448   -10.11141393     0.20597014     0.04086581     0.37692883
Li     -7.96188042     2.55184687    -6.02299215     0.29623205    -0.75147945     0.58883912
Li     -3.71717688     6.42323183    -2.01829746    -1.21699175     0.10696897     0.58040824
Li     -4.01185665     6.48336316    -5.96369971     0.43437770    -0.17618213     0.47556053
Li     -8.13635396     6.27578804    -9.89155999     1.27566536     0.37905066    -0.17980099
Li     -7.84967469     6.81731847    -5.90724154     0.28877452    -0.63246504     0.25664977
Ti     -1.94016263     2.34842304    -4.14794332    -0.26775641    -0.37785845     0.60148797
Ti     -5.81296486     6.80079512    -8.02849583    -0.00228907    -1.38121322    -0.19309658
Ti     -7.68460076     4.54313603    -7.70582172     0.10033265    -1.59348914     0.39914336
Ti     -7.75710742     4.34695895    -3.69582750    -0.57484125     0.19329421    -1.76927944
Ti     -3.84815124     4.32242605    -7.73133372    -0.38677155    -0.43130763    -0.37760887
Ti     -4.07894600     4.45042509    -3.69362732     0.02505141    -1.24770214     0.43610977
Ti     -1.82284333     0.11826487    -2.01562148     0.31270104    -0.89908094    -2.35371410
Ni     -5.96524353     2.21297495    -7.93981563     1.30453224    -0.54907046     0.31189498
Ni     -5.89748106     2.11612597    -4.09361743    -0.17029100    -0.47449583     0.71033894
Ni     -9.82897214     6.35949098    -7.83552222    -0.02947929     0.06514545    -1.43298935
Ni     -9.83358119     6.63370744    -4.00085087     0.91744851    -0.50309842     0.29508337
Ni     -1.99974430     2.20665237    -8.01462456     0.11884707    -0.13326902    -0.06978273
Ni     -5.89993261     6.82935285    -3.96846080    -0.11583914    -0.42938521    -0.06324966
Ni     -2.02914867     0.12134918    -5.96636315     1.20631781    -1.47027529    -0.05864152
Mo     -9.86005635     8.55626076   -10.25763317     0.84658747     1.60477854    -1.32019279
Mo     -5.80139337     0.06976731    -6.36502960    -1.48945937     0.57295578    -0.51009023
O      -2.00229641     1.96779697    -1.94187135     0.17299563     0.31577449    -0.26701502
O      -1.94951828     1.95894882    -6.06312831    -0.12383028     0.00046370     0.16447754
O      -5.84176437     6.82275448    -1.93485961    -0.15046316     0.43135592    -0.65808395
O      -5.81580717     6.95551480    -5.90556373    -1.34980891     0.79487333     0.14529606
O      -5.94643953     1.80867009    -9.76528146    -0.14636014    -0.96607444    -0.80479414
O      -5.90923468     1.95671514    -6.02747125    -0.15460571    -0.05903280    -0.56957498
O      -9.84085708     6.68260053   -10.06591269    -0.58959194    -0.59954314    -0.08481157
O      -9.80935401     6.78793528    -5.85925640     0.96599122     0.46247208     0.01973554
O      -3.80677904     2.33403703    -3.99113643    -0.90922309     0.68862672     0.00541682
O      -3.95177364     2.29987647    -8.00780347    -0.92663337     0.95532755     0.47586264
O      -7.96289156     2.35534977    -4.04138333     0.95470092     0.07877434     0.14043798
O      -7.82195076     2.51868258    -8.00857804    -0.24905301    -0.02358878     0.19188194
O      -3.91474730     6.34571875    -3.93535497    -0.25046776    -0.43374870    -0.05412407
O      -3.87652040     6.27809216    -7.92915189    -0.17683615     1.18098286    -0.28402855
O      -7.77811954     6.29259102    -4.03604829    -0.40422621     0.02859538     0.65186230
O      -7.82436428     6.40227921    -7.92571414    -0.40585842     0.83382524    -0.00850686
O      -4.20172698     4.36497383    -1.92361279     0.63183630     0.04114340    -1.01088961
O      -4.08358030     4.28944857    -5.96854042     0.10145114     0.10037254    -0.13566820
O      -8.13185589     4.36335491    -9.96815781     0.67081607     0.12546059     0.98849770
O      -7.85879155     4.33382270    -5.94357233     0.15084520     0.86775765    -1.00066669
O      -7.94835642     8.59241568    -2.26960754    -0.86997699     0.27742477     0.87907380
O      -4.00929822     0.07657515    -6.11438830     0.18650966    -0.15925025    -0.15249825
O     -11.61005139     8.63049709    -6.19008446    -0.83273385     0.69771496     0.19260400
O      -3.85483040     8.52552997    -6.06680920     0.39571352     1.07954208    -0.29566990
O      -2.07002860     4.31399323    -3.90153294     0.36173820     0.57684514     0.06587032
O      -1.98822950     4.11792596    -8.04636965     0.14779946     0.17618928     0.05366349
O      -5.93779760     3.90004540    -3.95847366     0.26851453     0.88232444     0.14056534
O      -5.85794329     4.77505070    -8.06193524    -0.45859439     0.08322156     0.68487101
O      -1.92073638     0.35935188    -4.03519945     0.22735483     0.34896114     1.06852958
O      -1.90285442     0.03503933    -8.13360606    -0.18453232    -0.43793978     1.19469500
O      -5.92689285     0.22761459    -4.20516731    -0.11712024     0.22923608     1.40068965
O      -9.84545142     8.20182247    -8.15244094     0.61817144    -0.38524128     1.02994326
