# total energy = -630.70770345 eV

CRYSTAL
PRIMVEC
        0.00279571     0.02951795    -7.98606283
       -7.83802570     0.01298533    -3.99532603
       -3.92160916     8.71933433     0.00634407
PRIMCOORD
56 1
Li     -3.71096073     2.22144242    -1.97002420    -0.96341288     0.66800365     0.07112578
Li     -3.96542958     2.08276840    -6.04548122     0.21443045     0.38890513     0.20409085
Li     -7.76921251     2.30541737    -9.86635698    -0.70207284     0.41043743    -0.71141755
Li     -7.79788522     2.33405087    -5.85593594    -0.08275639    -0.61212866    -0.06707647
Li     -3.82617364     6.52565728    -1.96177774    -0.47169257    -0.05215845    -0.23921497
Li     -3.82038285     6.49447795    -5.82660824    -0.28912239     0.31940367    -0.10706039
Li     -7.94585364     6.29277788    -9.98167230     0.07585817     0.36318472     0.28995862
Li     -7.85139052     6.54075095    -5.94226075     0.12943975    -0.06153709     0.18789693
Ti     -2.01320314     2.06448208    -4.04927376     0.13195331    -0.61383967     0.01345379
Ti     -5.89532982     6.54409360    -7.97071985     0.06503258    -0.57323029    -0.08441705
Ti     -7.89461507     4.24536007    -7.74909475     0.87804629     0.70305382     0.59802316
Ti     -7.79939626     4.49286217    -3.82784260     0.18816804    -0.84865682    -0.01903594
Ti     -3.77565285     4.33010957    -7.66431169    -0.19342510    -0.22744331    -1.77527334
Ti     -3.90569117     4.37219605    -3.91434074    -0.68974528     0.51086168     2.02036973
Ti     -6.19657417     8.70202031    -2.08051257     3.27347955    -1.50541525     0.16261944
Ni     -5.86890400     2.25271223    -7.95731269     0.88485687     1.02446118    -0.87069174
Ni     -5.89065181     2.15692420    -3.95100757    -0.19997064     0.11709552    -0.18205751
Ni     -9.72156955     6.59734461    -7.85178379    -1.16392091     0.45965268    -0.94284462
Ni     -9.87624430     6.55101840    -3.97316468     0.82811440     0.63054291    -0.26215301
Ni     -1.83673899     2.05268573    -7.90977671    -0.25430578     0.27686110    -0.86624874
Ni     -5.92305672     6.59706704    -4.02313550     0.68254856     1.12908486    -0.18570023
Ni     -2.07009359     0.08086678    -6.05203588     0.96547377    -1.88728925    -0.06683362
Mo     -6.01022024     0.19307101   -10.27655565    -2.07706713    -1.02722327     0.92184061
Mo     -5.79588610     0.05898284    -6.28403487    -2.77551631    -0.42222743    -1.45324703
O      -1.87157402     1.82971508    -2.07808609     0.02449845     0.89204228     0.75944828
O      -1.94470294     1.87676278    -6.09214616    -0.36635900     0.52949499     0.39548210
O      -5.87474281     6.77175095    -2.09347125    -0.42086171     0.08207264     0.56779421
O      -5.94504685     6.90364601    -5.96151166     0.24130130     0.20944573    -0.61766457
O      -5.96899136     2.07490947   -10.09212648     1.09695444    -0.10307822     0.77056367
O      -5.86372931     1.93409938    -5.81633092     0.16517448     0.51503686     0.36191876
O      -9.73248372     6.99038355    -9.73866189    -0.26677073     0.22700069    -0.05758448
O      -9.72107274     6.84719337    -6.02827164    -0.16128814    -0.50183407     0.69879718
O      -3.93975294     2.27227892    -3.93299482     0.20377400     0.13639428    -0.78103208
O      -3.88596156     2.44849829    -8.08526790     0.21044531    -0.09422805     0.89507529
O      -7.81541285     2.48813462    -3.91313392    -0.00407149    -0.58638154    -0.53054724
O      -7.81560370     2.23584593    -7.97070102     0.10246636     1.38574239     0.06492626
O      -3.81623549     6.34312279    -3.90847996     0.69065357     0.01052756    -0.49427577
O      -3.95198559     6.25069093    -7.95220994    -0.46256278     1.02098698     0.04821899
O      -7.94541490     6.43916065    -4.01689965     0.24180388    -0.14878961     0.34970587
O      -7.88926820     6.23981041    -7.92543451     0.56768051     0.01172450    -0.11513546
O      -4.04807555     4.23233694    -2.15941853     0.49166336     0.16214063     0.00167987
O      -3.96612995     4.24079614    -5.94289635    -0.18437103    -0.17497483     0.48293566
O      -7.83638567     4.38049140   -10.06129305     0.07139681    -0.09130006     1.03163973
O      -7.90430802     4.24303003    -5.95676267    -0.23984339     0.16676896    -1.37898232
O      -3.97575103     0.12660355    -2.17807772    -2.53110989     0.30610990     0.20046575
O      -3.97960890     0.07580464    -5.91742651    -0.50899134    -0.03526168    -0.53165907
O     -11.59763184     8.73457027    -6.04938285     2.32898616    -0.19184293    -0.29995513
O      -7.82920914     0.07533957   -10.07684764     1.55343003     0.21067509    -0.15981602
O      -1.96902073     3.98848155    -4.14964271     0.54810842     0.13324613     0.24348683
O      -9.79195728     4.82183167   -11.87694426    -0.16148746    -1.71397364    -0.40333092
O      -5.88296125     4.79331808    -4.18723069    -0.36446177    -0.51693101     0.22447967
O      -5.88970817     4.51787810    -8.04254322    -0.45466991    -0.70265684     0.57869609
O      -1.99103353     0.10027520    -4.09225679     0.20324099    -0.02262851     0.97319105
O      -5.94245082     8.41391030    -8.09877963    -0.14098111     0.46431312     0.04376696
O      -9.82901178     8.40096040    -4.00292878     0.04026902    -0.20906063    -0.92717128
O      -5.59729556     0.46818706    -8.16643630    -0.96697990    -0.27217714     1.15647662
