# total energy = -630.93001735 eV

CRYSTAL
PRIMVEC
        0.00285542     0.02004370    -7.95977623
       -7.82940539     0.00763210    -3.98158109
       -3.91729101     8.74642787     0.01461334
PRIMCOORD
56 1
Li     -3.88914426     2.45520166    -1.93229888     0.19116740    -0.32380320     0.15737667
Li     -3.89517914     2.17095213    -5.83582056    -0.39022602     0.09837211    -1.00459000
Li     -7.77384319     2.57922954   -10.02754511     0.11127375    -0.12594679     0.74715728
Li     -7.75064945     2.20342280    -5.82646632     0.21314435     0.47200579    -0.16098274
Li     -3.77452131     6.43574692    -1.96469822    -0.60514106     0.00467594     0.37760394
Li     -3.91128084     6.28566708    -5.84843743    -0.03340697     0.33480803    -0.03403096
Li     -7.71109428     6.40989672   -10.08642324    -0.58231551     0.60978607     1.13568226
Li     -7.86429109     6.92098904    -5.84204176     0.34427552    -0.77827454    -0.15779661
Ti     -1.97480446     2.04627518    -4.07116313     0.57940130     0.01002791     0.03655225
Ti     -5.86586736     6.47951147    -8.05519378     0.22641465    -0.95263042     0.60858279
Ti     -7.98204376     4.40685802    -7.70433048     0.00409616    -0.51710500     1.45088467
Ti     -7.93913101     4.56959067    -3.79526803     1.33722941    -1.23013288    -1.11230627
Ti     -3.79750483     4.31252554    -7.67549741    -0.86965092    -0.37574288     0.04642003
Ti     -4.02059561     4.44095508    -3.71989869    -0.44971752    -0.63875592    -0.45185469
Ti     -2.14197460     0.09121920    -1.81548097    -0.69645269    -0.17858871    -0.73071793
Ni     -5.85969188     2.34357697    -8.06434807    -0.10809496     1.35287768     0.58365759
Ni     -5.78602398     1.95127822    -3.99320401    -1.47294290     0.38116606     0.00720884
Ni     -9.85827122     6.66039396    -7.92480229     2.67879192     0.05989697    -0.14895046
Ni     -9.84746603     6.57392586    -3.92953631     0.81366049    -1.04108212    -0.26104469
Ni     -1.74670473     2.09271429    -7.88316143    -1.30015471     0.22411290    -0.49776336
Ni     -5.89765755     6.70259193    -3.97026715     0.60857425    -0.07155411    -0.62952253
Ni     -5.88085099     8.68182616    -6.03356462    -0.14958337     0.26230843     0.45557193
Mo     -5.99399065     0.11457662   -10.18965175     0.45818919    -0.46655445    -0.44891520
Mo     -9.85543519     8.72833143    -6.32723742     0.94244730    -0.08026341    -0.96411519
O      -1.74178011     1.97242081    -2.10628948    -1.23057348    -1.25506382     1.23330113
O      -1.96081188     1.80732168    -6.03913806     0.33207970    -0.31783723    -0.18843681
O      -5.77470500     6.88449865    -2.02084277    -0.65103621    -0.07150867     0.21415587
O      -5.87098465     6.83679193    -5.93073011    -0.10521897     0.33525847    -0.10476752
O      -5.78165709     1.99695606   -10.09668601    -0.14509479     0.91250958     0.66556067
O      -5.87614518     1.88589092    -5.87667660     0.36569676     0.07603356     0.51524407
O      -9.68173897     6.90783625    -9.85510350    -0.58287493    -0.15708511     0.75940592
O      -9.77208270     6.75906396    -6.01972113    -0.05936856     0.54316247     0.04105594
O      -3.97697565     2.40937398    -3.96314910     0.77263887    -0.44098519     0.18603106
O      -3.77160736     2.42998989    -7.89977004    -0.18817032    -0.24444258    -0.70448411
O      -7.75135504     2.32849263    -3.84914841     0.24929182     0.62850751    -0.85674324
O      -7.82376377     2.49757098    -8.08442701     0.72563395    -0.61511880    -0.04701381
O      -3.75917567     6.38267134    -3.85631437    -1.47106783    -0.13705144    -0.98854068
O      -3.99240612     6.30129555    -7.88329437     0.76537449     0.21530722    -0.13999019
O      -7.84609277     6.50696202    -3.96319713    -0.43454865    -0.46939882    -0.12619930
O      -7.80101018     6.31379119    -7.99240849    -0.55704222     0.40801619     0.22614466
O      -3.97085594     4.39224360    -1.95911338     0.47666415    -0.13583904    -0.02946259
O      -3.76600098     4.28314879    -5.92253437    -0.41987916     0.58831079     0.40808384
O      -7.81197056     4.50228525    -9.99013826    -0.00875314    -0.40982326     0.03668604
O      -7.91664659     4.23162323    -5.91544352     0.28224903     0.25471868    -1.01841216
O      -3.98959748     0.13391410    -9.85982150     1.70117096    -0.07054914     0.00005464
O      -8.00493543     8.69931582    -6.23080530     0.24877614     0.34169879     0.54623068
O     -11.61949066     8.70688362    -6.06556448    -0.71038161     0.07416987     0.36020138
O     -11.60973754     8.76068600    -9.85162009    -0.68865435     0.03580080    -0.50608253
O      -2.01504406     3.93736268    -4.05688634     0.15465393     1.07339462     0.27221247
O      -9.78624258     4.68091888    -3.99671866    -0.21560755     0.22303300    -0.19561555
O      -5.88291850     4.73922056    -4.00417232     0.00749457     0.69084957    -0.24942326
O      -5.86063924     4.40965084    -7.93891264    -0.09992810    -0.10378681    -0.04538462
O      -2.06399558     0.06810050    -4.09615158     0.08933552     0.00928862     0.68276890
O      -5.70425890     8.39358103    -7.96500353    -0.42656875     0.69137587     0.22078170
O      -9.75312699     8.36950432    -3.98942850    -0.34589157     0.81199419    -0.74138852
O      -5.92700577     0.56821873    -8.11977683     0.08183397    -0.68824632     0.62123523
