# total energy = -630.25117532 eV

CRYSTAL
PRIMVEC
        0.00285542     0.02004370    -7.95977623
       -7.82940539     0.00763210    -3.98158109
       -3.91729101     8.74642787     0.01461334
PRIMCOORD
56 1
Li     -3.83881039     2.17795926    -1.88962584    -1.04001780     0.28651959    -0.31961975
Li     -4.08065052     2.06655015    -6.02167395     0.83736873     0.35987301     0.02715519
Li     -7.83794812     2.29391624    -9.96564453     0.00221057    -0.28191835     0.09632292
Li     -7.85815752     1.83760273    -6.03996705     0.46127855     0.48775836     0.52992157
Li     -3.93153736     6.75827741    -1.96308458    -0.22966262     0.01682096     0.32787598
Li     -4.01145705     6.55824244    -5.84359180     0.44296263    -0.02161313     0.26235861
Li     -8.00231271     6.28558031    -9.81055528     0.58208364     0.10645000    -0.38528833
Li     -7.77928612     6.51521952    -5.84272628     0.21318284    -0.24977030    -0.08734912
Ti     -1.98116181     2.31010464    -4.09019721    -0.77762543    -0.22938726    -0.66413709
Ti     -5.87913434     6.87159856    -8.00885762    -0.46674472     1.46386273     0.23443867
Ti     -7.75052278     4.42216681    -7.66368938    -0.18383379    -0.72207068    -2.89391474
Ti     -7.61577556     4.29849363    -3.67802161    -0.89684783     0.60047479    -0.16551095
Ti     -3.88814566     4.36363077    -7.64765803    -0.05216507     0.56980583     0.95331375
Ti     -3.94637074     4.48158036    -3.67798888    -0.59579131    -0.59861975    -1.07692618
Ti     -2.24493266     0.08595638    -2.17272179    -0.07167981    -0.63282590     0.42191117
Ni     -5.84252701     2.34389159    -8.08132428    -1.00884580    -0.99037354     0.10788817
Ni     -5.79364485     2.11311573    -4.03414174    -0.84979929    -1.06699037    -0.62860400
Ni     -9.75473299     6.43035702    -7.63322467    -0.10439729     0.07815530    -2.03684488
Ni     -9.87876341     6.45637763    -4.01023749     1.29304148    -0.60281439     1.03786973
Ni     -2.01467678     2.46681774    -7.95817232     1.19865788    -1.40311222     0.41315054
Ni     -5.95114221     6.79500236    -3.99463170     0.85752986    -0.35795317     0.60023596
Ni     -5.98418849     8.75804633    -5.96837831     1.25432036     0.98873621     0.08330347
Mo     -9.90889289     8.67401248   -10.20175428    -2.43985680     0.73129027    -0.02049045
Mo     -9.69497485     8.59673146    -6.35101984    -2.38156183     1.50918778    -0.51298959
O      -1.99422636     1.97743948    -1.93258202     0.38372997    -0.46999208    -0.83858661
O      -2.02683011     1.88722187    -6.01137310     0.28977712    -0.05772481     0.11313315
O      -5.92690041     6.82534456    -2.03989437    -0.09903745     0.64629401     0.74589386
O      -5.84910468     6.92639917    -5.87938292    -0.55925701    -0.22606563    -0.34463180
O      -5.88273998     1.93072099   -10.04526005     0.23974284     0.35961951    -0.46781273
O      -5.88131130     1.87781943    -5.99065352    -0.08667956    -0.08706267    -0.49717600
O      -9.73409085     6.90719382    -9.67563008    -0.81785107    -0.35818490    -0.12906201
O      -9.74555874     6.72726044    -5.82824803    -0.05789735    -0.24822905    -0.26781384
O      -3.88635684     2.23759441    -4.13127945     0.48836744     0.79576413     1.29258506
O      -3.93222224     2.48012890    -7.94547910     0.24176713    -0.49139587     0.17404869
O      -7.88112391     2.38649689    -3.91336827    -0.13486164     0.37487760    -0.52289848
O      -7.87097012     2.45382090    -8.01131477     0.47629244    -0.59820338     0.34999342
O      -3.88505676     6.40078759    -3.79910117    -0.01144432    -0.53694573    -0.37090306
O      -4.01148281     6.45087284    -7.94326575     0.02249032    -1.03397029     0.17554221
O      -7.72597518     6.31192573    -4.01490579    -1.40890136    -0.51464623     0.77532361
O      -7.80739869     6.44553369    -7.84255146     0.49148956    -0.54796434    -0.18062820
O      -4.06355843     4.11193970    -1.98428958     0.62911484     0.63179295     0.13570040
O      -3.88911373     4.27319600    -5.85356125    -0.07386041     0.82551294    -1.53024111
O      -7.76211765     4.38750890    -9.85414514    -0.01604844     0.28939171    -1.09413983
O      -7.63633941     4.40415160    -6.00792693    -0.59075516     0.27349832     3.66428357
O      -4.06240629     0.05751640    -2.29495864     1.29588027    -0.11173344     1.01050947
O      -7.94759251     8.72310167    -6.07286106     0.91787029    -0.19302815     0.40626249
O     -11.49577451     8.68335716    -5.89227600    -0.20111676    -0.25202473    -1.04239559
O      -3.93249884     8.73913414    -6.05969517     1.74562675    -0.29930636    -0.14590519
O      -1.92486705     4.21343848    -3.98441661    -0.92428640     0.33516471     0.45694406
O      -9.70904947     4.38088865    -3.97587570    -0.82987932     0.53901453    -0.25311787
O      -5.83116696     3.90437193    -4.07414285     1.03413844     1.40176499     0.31299729
O      -5.87136075     4.19495529    -7.96175046     1.24694464     0.94535039    -0.08789657
O      -1.92514285     0.24486572    -3.97756769     0.38799491     0.27682406    -0.14934432
O      -5.96831591     8.74955715    -7.96005539     0.01990765    -2.04281318    -0.71964534
O      -5.86402233     0.14227090    -4.10517717     0.00701306     0.32107195     0.86617583
O      -5.82161573     0.45426074    -8.23023489     0.05493905     0.07823949     1.78201079
