# total energy = -630.64856891 eV

CRYSTAL
PRIMVEC
        0.00285542     0.02004370    -7.95977623
       -7.82940539     0.00763210    -3.98158109
       -3.91729101     8.74642787     0.01461334
PRIMCOORD
56 1
Li     -3.94452592     2.01047087    -2.02406784    -0.06376156     0.30664879     0.30667347
Li     -4.09814592     2.11141667    -6.15544123     0.41075370     0.29922127     0.47193737
Li     -7.97906399     2.27851205    -9.97718780     1.22134954     0.02525470    -0.20177167
Li     -7.78335510     2.07818746    -5.81527437    -0.65588684    -0.08409483    -0.17887057
Li     -3.94919968     6.43309000    -1.96044587     0.18505985     0.25743759     0.27727920
Li     -3.95917024     6.44882985    -5.66674827     0.40397336    -0.07465372    -1.09676596
Li     -7.82140349     6.45469444    -9.79329760    -0.09210932     0.07761632    -0.33017089
Li     -7.77715440     6.59862976    -5.73246483    -0.13804052    -0.05304203    -0.46680336
Ti     -1.95235191     2.27387294    -4.09148387    -1.16022848    -1.10154872     0.19919485
Ti     -5.79293656     6.51524617    -7.81717999     0.32081819     0.93797539    -0.16456164
Ti     -7.75985151     4.36952731    -7.60673470    -1.20596492     0.71687568     1.26304483
Ti     -7.77313844     4.39858425    -3.71260508     0.03579889    -0.87929058    -1.40063428
Ti     -3.82082568     4.33914270    -7.77613874     0.16239161     0.30099346     0.51789739
Ti     -3.87326703     4.46035895    -3.74212810    -1.21301503    -1.33863584     0.75267708
Ti     -6.04350405     8.69153527    -1.96760198    -0.45990076     0.00482337    -0.39949080
Ni     -5.90222609     2.38125894    -8.10460522     0.64045058    -0.13259717     0.14351896
Ni     -5.89040092     2.19206126    -4.13742399     0.01938041     0.46214093     1.08097569
Ni     -9.76342098     6.55484852    -7.87152969     0.62760699     0.10074359     0.88493728
Ni     -9.74868502     6.54194077    -4.04349241    -0.49923544    -0.04451734     0.64644532
Ni     -1.89598146     2.14299836    -7.89811497    -2.29974168    -0.34620656    -0.81191766
Ni     -5.87993542     6.44472993    -3.97989514     0.46307279     0.59678110     0.94290036
Ni     -2.05480315     0.07931051    -5.86532419     0.66158487    -1.15688630    -0.50270951
Mo     -9.91488730     8.70410243   -10.22589640     0.24436647     0.65582440    -0.99169868
Mo     -9.80329219     8.69571337    -6.39551354    -0.22324329    -0.31884134     0.13544839
O      -1.94787082     1.82266242    -1.77314404     0.46720554     0.76856887    -0.92891574
O      -1.97313465     1.92278274    -6.01817802    -0.76661870     0.29689131     0.74581056
O      -5.85497426     6.77935561    -2.03330076     0.09582482    -0.41254797     0.20592905
O      -5.74877893     6.96508405    -5.80734489    -1.30739376    -0.06403274    -0.25526911
O      -5.92412624     2.00928981   -10.15709096     0.34131264    -0.82979690    -0.24570855
O      -5.96497309     2.07991638    -6.01358470     0.76675511    -0.79797961     0.05065598
O      -9.84929924     6.86496974    -9.71279374     0.59617381     0.90164618    -0.30029821
O      -9.75287906     6.79382620    -6.00053684     0.09524290     0.23679905    -0.25877722
O      -3.92239151     2.43579501    -3.90358801     0.55208108     0.24969859    -0.94571596
O      -3.89427517     2.48115239    -8.09109435    -0.33851560    -0.50820124     0.69923921
O      -7.99320093     2.43252685    -3.94324165     2.23234992     0.37597856     0.03064725
O      -7.81294288     2.43701176    -8.03220999    -0.71545614     0.15906812     0.29495534
O      -3.78148950     6.38911050    -3.86476044    -0.98222705     0.20520595    -0.09370305
O      -3.88648715     6.46729683    -7.87816541    -0.35628542    -0.57950262    -0.46417313
O      -7.76276263     6.32669187    -3.83757548    -0.61878067     1.12317022    -0.68410932
O      -7.78717163     6.33399164    -7.83696871    -0.25130319    -0.07168916    -0.21529109
O      -3.95368260     4.49705763    -1.96261329    -0.48249947     0.15975989    -0.58238700
O      -4.06048995     4.48572513    -6.01247774     0.43764992     0.01100515     0.31660005
O      -7.85243424     4.52865586    -9.94717586    -0.43611534    -0.62958489     1.71414469
O      -8.02457176     4.57120947    -5.83877042     0.54949478    -0.61982511    -1.81680640
O      -3.96478858     0.04847128    -9.92756152    -0.46381541    -0.45966061    -0.19779060
O      -4.11423121     0.12933197    -6.02686535     0.33927395    -0.19810363    -0.32324637
O      -7.64847602     0.04118561    -5.95750119    -0.18022150    -0.15981776    -0.45278264
O      -7.73716310     0.11543610    -9.99275474     0.27180202    -0.30052831    -0.33709966
O      -2.00032951     4.22743067    -3.96549198     1.22662821    -0.87493261    -0.30994571
O      -9.87010424     4.64131952    -4.01204320     2.04542732     0.66537007     0.25203522
O      -5.86825242     4.39619409    -4.13644930    -0.14944891    -0.32739702     0.68288264
O      -5.91252712     4.41613396    -7.92699482     0.33043951    -0.07937189    -0.29806483
O      -2.08270495     0.31893219    -3.95852331     0.66581822     0.51211007     0.24165312
O      -5.91294624     8.31698473    -7.94965053    -0.01095369     1.19755725     0.13798135
O      -9.65735762     8.52632101    -4.14280991    -0.75114702     0.08029014     2.40351549
O      -5.78147822     0.50321290    -8.17734411    -0.67852964     0.86124252    -0.02881464
