# total energy = -630.88756743 eV

CRYSTAL
PRIMVEC
        0.00285542     0.02004370    -7.95977623
       -7.82940539     0.00763210    -3.98158109
       -3.91729101     8.74642787     0.01461334
PRIMCOORD
56 1
Li     -3.90478971     2.18443613    -2.04845039     0.25880024     0.01595005     0.63999309
Li     -3.88584986     2.02558636    -5.92257777    -0.24410892     0.24684045     0.00893214
Li     -7.70608194     2.41133178    -9.89886232    -0.40288964     0.09303513    -0.66633518
Li     -7.81966117     2.30854151    -5.71963847     0.23464312    -0.29087966    -0.23691864
Li     -4.01448681     6.41322105    -2.02314372     0.42034851     0.14277972     0.13613051
Li     -3.86511950     6.26685926    -5.92686937    -0.03609885     0.44350566     0.16647992
Li     -7.97952192     6.84233647    -9.87879624     0.19138640    -0.44261326     0.06310531
Li     -7.80119197     6.62531308    -5.86777067    -0.28809301     0.18299114    -0.03193188
Ti     -1.86384732     2.13935947    -3.99021948    -0.95067015     0.20461193    -0.61426767
Ti     -5.88577364     6.53852736    -7.87388876     0.78841716     0.58711446    -0.39627835
Ti     -7.91805085     4.30841425    -7.66986536     0.83898022     1.49993067    -0.62527304
Ti     -7.85146140     4.54483688    -3.70506820     0.09986629    -2.47848124     0.21909830
Ti     -3.70289413     4.32526098    -7.79122543    -1.24138538     0.45113145     0.00904847
Ti     -3.92628666     4.35879924    -3.74128310    -0.54078232    -0.53387998     0.24298479
Ti     -5.96080455     8.68133031    -2.13594672    -0.85587086     0.60255971     1.05151263
Ni     -5.76960434     2.35601017    -7.97763175    -0.64359146     1.72842288    -0.26338005
Ni     -5.93004947     2.23585673    -3.94708096     0.21701671     0.43937566    -0.69498902
Ni     -9.84162801     6.67427019    -7.90040481    -0.11436959    -0.46204170     0.99157673
Ni     -9.86871263     6.55510095    -4.08861078     0.50702345     1.66837508     0.27023244
Ni     -1.92663319     2.02351602    -7.93374926     0.43050860    -0.01900702     0.58522551
Ni     -5.93364732     6.45352220    -3.96393689     1.20344552     0.07794915     0.21383115
Ni     -5.93816293     8.70618094    -5.93792457     1.00280229     0.54023489    -0.55268264
Mo     -5.98966870     0.16524810   -10.20407833    -0.28376529    -0.28547034    -0.98978749
Mo     -9.83466001     8.73958471    -6.29908657    -0.17024998    -0.54511797     0.03742578
O      -1.84532906     1.82341582    -1.89151253    -0.15127579     0.80506168    -0.36295042
O      -1.93898823     1.82278912    -5.96478433    -0.85578860    -0.04432060    -0.30928550
O      -5.91179191     6.83812638    -2.00748824    -0.39643040    -1.83331488    -0.55967005
O      -5.81695083     6.85641152    -5.93097320    -0.45975560    -0.06221299    -0.15895068
O      -5.79529721     2.11185766   -10.12179394    -0.50247816    -0.03957849     1.66304985
O      -5.86122102     1.81058104    -5.75645949    -0.45944672     0.99810712    -0.23182208
O      -9.88383562     7.03876839    -9.67693503     0.28765626     0.25595066    -0.49231447
O      -9.79654494     6.81669206    -6.01966320     0.20488286    -0.38800124    -0.20991008
O      -3.95231517     2.34969019    -3.91340381     0.55059224     0.18411725    -0.84040966
O      -3.82783298     2.47000869    -8.02603406    -0.11406694    -1.15606659     0.32556221
O      -7.91711770     2.47806228    -3.85976506     0.48447998     0.08130082    -0.20824780
O      -7.78673112     2.37574124    -8.06377992    -0.13630470     0.39656302     0.98441130
O      -3.92830698     6.30296485    -3.99275347     0.06921639     0.43170410     0.25543459
O      -3.91288263     6.41284296    -8.05314931    -1.29454029    -0.95243012     0.88138586
O      -7.85998298     6.37696732    -3.90302214    -0.07384351     1.81063328    -0.81051494
O      -7.88879454     6.32185117    -7.81910581     0.30336563    -0.05125235    -0.43147982
O      -3.79471005     4.39181756    -1.98405663    -0.71371216     0.16803516    -0.24856750
O      -3.79592014     4.40062861    -6.02657426     0.12178441    -0.06650823     0.15601643
O      -7.89292032     4.48320897    -9.91405582    -0.10692944    -0.31346399     0.18364293
O      -7.72586137     4.16807888    -5.95358937    -0.34945184     0.53519822     0.45165005
O      -3.99714133     0.13436715    -2.16433162     1.01206634    -0.70245103     0.53037273
O      -7.99372096     8.71251002    -6.03608443     0.85594153    -0.25978191     0.23644289
O     -11.61769860     8.62346655    -5.94994855     0.05023670     0.38031747    -0.59897867
O      -7.74622256     0.30130284   -10.22414848    -0.55202427    -0.61032949     1.13707132
O      -2.04589255     4.07554383    -3.93251315     2.13673821    -0.55455808    -0.35872915
O      -9.77815685     4.80351849    -4.20966337     1.21356864    -1.51323807     0.57927622
O      -5.84263378     4.41822014    -4.01426829    -1.13130678     0.09642735     0.11382855
O      -5.90100919     4.32939693    -7.95723734     0.56905005     0.64956304    -0.11738189
O      -1.73424181     0.23602795    -3.96574888    -0.48392973    -0.71385722    -0.84246361
O      -5.79384499     8.40146380    -8.11000657    -0.90601384    -0.29709512     1.00276525
O      -9.85046312     8.44266200    -3.97999364     0.54480562    -0.53980066    -0.68030422
O      -5.85759364     0.59463929    -8.07382594     0.00543705    -0.87030295    -0.58515458
