# total energy = -630.88666889 eV

CRYSTAL
PRIMVEC
        0.00285542     0.02004370    -7.95977623
       -7.82940539     0.00763210    -3.98158109
       -3.91729101     8.74642787     0.01461334
PRIMCOORD
56 1
Li     -3.91147088     2.43086079    -1.89610720    -0.17982749     0.11697254    -0.23627801
Li     -3.97131465     2.52675323    -5.92656423     0.34435020    -0.27248907    -0.09622341
Li     -7.77221082     2.14932622   -10.02099661    -0.11245335     0.13315738    -0.09457461
Li     -7.79082806     2.37449533    -5.85841334     0.21521672    -0.37213212    -0.02769909
Li     -3.96400914     6.56978410    -2.01552411     0.02883953    -0.00512970     0.44914503
Li     -3.96219818     6.44593077    -5.81927030     0.26274165     0.38009539    -0.02327552
Li     -7.81101842     6.61069414    -9.92402053    -0.17512810    -0.33523461     0.23631939
Li     -7.91134708     6.40022919    -5.80854693     0.29549117     0.44383958    -0.09574649
Ti     -1.93730992     2.22791668    -4.12677064     0.13190345    -0.57281106     0.32069575
Ti     -5.89270902     6.79399752    -7.93730414     0.05404562     1.50973601    -0.48488513
Ti     -7.76582972     4.27329597    -7.64617281    -0.16127076     1.81101539     0.58558460
Ti     -7.80782863     4.41556359    -3.73604274     0.13482930    -0.37816898     0.09928098
Ti     -4.01767561     4.41491179    -7.69251399     1.27057294     0.48673614    -1.28413741
Ti     -4.01710581     4.41568985    -3.73741367    -0.85346920     0.68752021     0.73788614
Ti     -2.12904192     0.16845912    -2.06678004     0.33040696    -2.03074135     0.48517260
Ni     -5.82394685     2.27989912    -7.98555031    -0.01114623     0.86106228    -0.86588551
Ni     -5.83854631     2.03032637    -4.09594545    -0.38575552     1.24093988     0.82461769
Ni     -9.80443752     6.47139000    -7.84772701    -0.07009704     0.34497762     0.54933640
Ni     -9.81879193     6.26800184    -4.00940100    -0.87298176     0.87790222    -0.22151913
Ni     -1.93825898     2.28499982    -7.99178482     0.07564697     0.12646173     0.42085264
Ni     -5.88174280     6.73712800    -3.92363941    -0.16397747     0.10673137     0.11626910
Ni     -2.00030264     0.03578768    -5.92142174     0.49712812    -0.80829670    -0.38041046
Mo     -9.84565381     8.70807228   -10.24489681    -1.78840754     0.21818937     0.45993542
Mo     -9.76255991     8.69800915    -6.30630555    -0.73004178    -0.89665913    -1.55279181
O      -1.85069237     2.00930107    -1.99393702    -0.80770100    -0.09916538     0.12755663
O      -1.90296143     1.97082245    -5.99840156    -0.93933777    -0.76221302    -0.25733771
O      -5.86558469     6.83327947    -1.96411331    -0.32579623     0.42240948     0.00519565
O      -5.79564228     6.91716048    -5.82039019    -0.96672525     0.27186556    -0.48524066
O      -5.91227551     1.93390703   -10.11424848     0.88116466     0.01029961     0.10296970
O      -5.72824019     1.92134710    -5.98819062    -0.79209002     0.45295129     0.67761442
O      -9.76545661     6.93376568    -9.69561390    -0.67921028    -0.18877761    -0.12160637
O      -9.88678090     6.80526442    -5.93110613     0.63021737    -0.79711218    -0.20511313
O      -3.86954587     2.51639064    -3.92427300     0.23645127    -1.99284507    -0.71168074
O      -3.90284722     2.53511905    -7.95323163     0.23628583    -0.98830073     0.05583563
O      -7.88087086     2.41997386    -3.99626920     0.00437637    -0.21685918     0.13438119
O      -7.74977331     2.40071658    -7.99098276    -0.08769306    -0.46165872     0.16719484
O      -3.91664711     6.36574048    -3.87671211     0.53529587     0.14062507    -0.78884269
O      -3.99941018     6.38521741    -7.92459307     0.03830856    -0.11891549     0.06990960
O      -7.99745129     6.47201769    -3.86577022     1.34890436    -0.97945480    -0.65122755
O      -7.77061644     6.29636450    -7.92016544    -0.19608827    -0.21346800     0.50341144
O      -3.84012719     4.49991660    -1.98310056    -0.13082196    -0.29917387    -0.13343347
O      -3.90427924     4.53505116    -5.95108435     0.16629855    -0.38932516     1.29433100
O      -7.92698458     4.48084622    -9.96491562     0.00917110    -0.03963257     1.13419731
O      -7.88107404     4.43984411    -5.82983581     0.28360247    -0.04500451    -2.27955348
O      -7.94886635     8.68819200    -9.80633822     0.73055867     0.93157960    -1.21023452
O      -7.96494438     8.54557510    -6.05306916     0.71081210     0.46970173    -0.18262304
O     -11.61354006     8.72273202    -6.15036900     0.29479966     0.32446317     0.55878687
O      -7.81635896     0.03167552   -10.10542631     2.06930925    -0.05243667     0.01381550
O      -1.85517789     4.04453301    -3.93711316    -0.86204707     1.20370022    -0.29176639
O      -2.01376218     4.40833468    -0.03816368     0.12243130    -0.59172122     0.02562897
O      -5.91070035     4.10753438    -3.93452548     0.83136910    -0.10078991    -0.35371528
O      -5.88017619     4.27332491    -8.00979292    -0.37692643    -0.12464537     0.12302229
O      -1.94890033     0.18582883    -3.94590166    -0.57474098     0.81585171     0.20194733
O      -5.86028040     8.66327048    -8.03514664    -0.14320692    -0.95737627     0.29221379
O      -5.75815536     0.03257282    -4.16158111    -0.41927195     0.79261103     1.50331061
O      -5.84478198     0.51901795    -8.13738113    -0.05033445    -1.02052414     0.70047437
