# total energy = -629.83543646 eV

CRYSTAL
PRIMVEC
        0.00279571     0.02951795    -7.98606283
       -7.83802570     0.01298533    -3.99532603
       -3.92160916     8.71933433     0.00634407
PRIMCOORD
56 1
Li     -3.99468624     2.08094609    -1.93959418     0.30738247     0.18084440    -0.16662115
Li     -3.85394822     2.12496514    -5.92291522    -0.53974228    -0.01362077    -0.21215496
Li     -7.96723978     2.20863094    -9.96664777     0.91044029     0.19513835    -0.36127007
Li     -7.83257124     2.51257512    -5.96699884     0.10729260    -0.44514046    -0.07647939
Li     -3.94546544     6.61365055    -2.12972058    -0.35681857    -0.43472011     0.87094097
Li     -3.88407312     6.68825170    -6.00892635    -0.02654640    -0.43503206     0.38632775
Li     -7.93932739     6.86752830    -9.89579776     0.52933014    -0.66248167    -0.19357895
Li     -7.89130625     6.52637397    -5.80287629    -0.06643515     0.17829023    -0.65789667
Ti     -1.88877258     2.10613991    -3.94011747    -2.82108176    -0.85528219    -0.14305994
Ti     -5.88165960     6.52395323    -8.01562580    -0.25745793    -0.14554332     0.62051144
Ti     -7.90990929     4.39895356    -7.77848837     0.61919705     1.50056873    -0.07523665
Ti     -7.92496379     4.39252450    -3.71069972     1.13022445     0.35555663    -0.54567902
Ti     -3.81001472     4.27083113    -7.75229899    -0.81263541     0.70873620     0.13763464
Ti     -4.03980504     4.45988561    -3.75355488     0.28663710    -1.78599599     0.68055882
Ti     -5.72948126     8.70903305    -1.88509874    -1.61935465     1.59128913     0.27362125
Ni     -5.94976583     1.96692445    -8.04025981     1.31009417     0.71031430     0.83715890
Ni     -5.89894147     2.32330034    -4.04349798     0.18746408     0.36590249    -0.26138460
Ni     -9.82731213     6.33289635    -7.88030437     0.72503968     1.49148938    -1.23455501
Ni     -9.85966154     6.87784125    -4.06760943    -0.26689956    -1.25813199     1.11935526
Ni     -1.96577370     2.19794780    -7.99945976     0.28424479    -1.66344351    -0.00646255
Ni     -5.90002992     6.54046586    -4.09158838    -0.52007033     0.21652250     1.06002140
Ni     -1.80070736     0.07138603    -5.85143940    -1.32059345    -0.08371805    -1.03465297
Mo     -9.74329707     8.71275363   -10.30298572     1.50768685    -0.28698348    -0.60278600
Mo     -5.93509771     0.04122522    -6.37782557     2.11439165     1.26779570    -0.29439647
O      -2.10076211     2.00613005    -1.99072291     1.13278005    -0.57895168    -0.74427667
O      -1.99767715     1.91351388    -5.92195791     1.01698088    -0.25026155    -0.03716953
O      -5.97864811     6.84377634    -1.94538845     0.28481446    -0.28159791    -0.52549479
O      -5.95594876     6.95569157    -5.85562806     0.86972072     0.11082325    -1.09400198
O      -5.82464374     1.93024283    -9.86841645    -0.78870656     0.56081144    -0.26169638
O      -5.91310987     1.94483802    -6.14342123    -0.57900151     0.45173019     0.10549733
O      -9.77960149     6.70707099   -10.20767954    -0.13719073     1.58316639     0.32458247
O      -9.98236641     6.90729738    -5.87269036     0.63160478    -0.98300318     0.07319269
O      -3.91269930     2.42892479    -4.05116759     0.19031317     0.74089636     0.63486554
O      -3.90589450     2.35228156    -7.97055026    -1.09248211     0.33767428     0.21650773
O      -7.88320457     2.39834149    -4.18793183     0.61447611     0.26549898     1.74434435
O      -7.86950779     2.39172860    -7.95347158     0.40131357     0.17442315    -0.25069282
O      -3.88033345     6.36016579    -3.92583807    -0.97807716     0.40729361    -1.22511517
O      -4.00778382     6.41791744    -8.02841387     0.82807368     0.32025062     0.68262694
O      -7.94706231     6.34208843    -3.95019355     0.62246302     0.14317126    -0.37025001
O      -7.87427251     6.46583454    -7.94769737    -0.45075212    -1.37228386     0.30904663
O      -3.91010071     4.60725312    -1.98534741    -0.02464302    -0.66267907     0.00341102
O      -3.89664111     4.47487166    -5.99943361    -0.32439238     0.19929213    -0.87360342
O      -7.83117349     4.35542112    -9.97745270     0.06509424    -0.45548631     1.27679612
O      -7.95162139     4.37264393    -6.01408769     0.42927682     0.54516691    -0.47943279
O      -3.92257006     0.08918448    -2.01986042    -1.44371779    -0.85961274    -0.13317770
O      -8.12511715     8.68388609    -6.06444705     0.45520150     0.22936643     0.21631595
O      -0.01286464     0.02502813    -2.18564505     0.25976254     0.01270665     0.43664693
O      -7.52473312     0.06856599    -9.87620775    -2.01657312    -0.20944656    -0.28477465
O      -1.99518803     4.42630788    -4.03544888     0.09538003    -0.67210899    -0.03265459
O      -1.91306394     3.99792738    -7.86878165    -1.52837824     0.58160203    -0.65062200
O      -5.91420486     4.17285073    -3.97500097    -0.42440498     0.52146025    -0.39209085
O      -5.95330482     4.69503009    -8.04427074     0.54635604    -0.23442937     0.31258010
O      -1.99056148     0.15341324    -3.99622144     0.12485756     1.53389506     0.36177319
O      -1.86483344     0.07457653    -7.98964326     0.08476371    -0.14948002     0.22020105
O      -5.86301497     0.50013212    -4.08951859    -0.36764673    -0.76849873     0.12839711
O      -9.78644157     8.28252152    -8.11715841    -0.11284627    -1.05773098    -0.01509212
