# total energy = -630.47667345 eV

CRYSTAL
PRIMVEC
        0.00279571     0.02951795    -7.98606283
       -7.83802570     0.01298533    -3.99532603
       -3.92160916     8.71933433     0.00634407
PRIMCOORD
56 1
Li     -4.00843958     2.42356246    -2.05365126     0.27288040    -0.54280481     0.40188175
Li     -3.86039650     2.25165072    -6.08503851    -0.36537664     0.09033617     0.69473323
Li     -7.78064235     2.30369672   -10.12324126    -0.64972147    -0.12979678     0.68263309
Li     -7.82285870     2.03711810    -5.96604976     0.01778672     0.61678867     0.32510588
Li     -3.83602289     6.47222675    -1.88516410    -0.43605330    -0.19248354    -0.10306877
Li     -3.97771256     6.58101097    -5.94681372    -0.03794129    -0.35203474     0.35664565
Li     -7.94438865     6.10042713    -9.85920231    -0.11265273     1.18757516    -0.08129863
Li     -7.89059708     6.41089984    -5.68751510     0.16152115     0.16518603    -0.93223861
Ti     -1.86296970     2.14101974    -4.04339359    -0.97189462     0.46115982    -0.27660973
Ti     -5.89777169     6.62817927    -8.00030439    -0.17143786    -0.17258652     0.46835068
Ti     -7.88127183     4.41799346    -7.69833177     0.00117861     0.51294752    -0.14247174
Ti     -7.80529649     4.28447492    -3.74558876    -0.12576792    -0.06448960    -0.94022961
Ti     -3.79036496     4.36973536    -7.80484554     0.01185060     1.67005243     2.07060884
Ti     -3.94961352     4.31678440    -3.84792399    -0.00363267     0.63479155    -0.12822601
Ti     -6.07804073     8.67877838    -2.09843670    -0.74412054     0.39644309    -0.25749768
Ni     -5.89361040     2.46622679    -8.06833917     0.58165761     0.86495066    -0.39369423
Ni     -5.90765952     2.10663494    -4.02075115     0.28165475     0.67282725    -0.66816661
Ni     -9.94891446     6.61674873    -7.80385843     0.83276029    -0.13038857     0.23320635
Ni     -9.70404774     6.57806198    -3.92845443    -0.29207113    -0.13096955     0.17019644
Ni     -1.95883162     2.00746125    -8.00671575     0.28747676     0.07613640    -0.46377381
Ni     -5.83059785     6.45824266    -3.95511105    -1.25376464     0.20745659    -0.02443916
Ni     -6.01527256     8.71556552    -5.98938907     0.48892316    -0.66089660    -0.13923739
Mo     -9.91345199     8.73315770   -10.18647269    -1.01477860    -0.70405293     2.11217682
Mo     -5.86037681     0.10678083    -6.41956675    -0.05088509    -1.00170040     0.81432474
O      -1.92723540     1.91279987    -2.00145785    -0.25669177     0.18853618    -0.35053703
O      -2.03638640     1.78921948    -6.16487832     0.81465066     0.98789955     0.72886449
O      -5.97373050     6.76138336    -1.98053362     0.68195368    -0.34495012    -0.69472086
O      -5.99457406     6.87945689    -5.88723797     0.35776290    -0.20425065    -0.09258032
O      -5.98661199     2.05857739   -10.16625086     1.22058045    -0.78459024     0.26563088
O      -5.84848571     1.90753053    -5.85897273     0.22010175     1.21134383    -0.22379281
O      -9.83869405     6.84805629    -9.62450084     0.14610927     1.44933293    -1.14451518
O      -9.86081355     6.96416656    -5.90083466     0.50086645    -0.76794465    -0.89293742
O      -3.83984850     2.44355241    -4.13094114    -0.06562968    -1.06368987     0.82009018
O      -3.92142884     2.53945822    -7.89195039    -0.27235533    -1.53074511    -1.45219148
O      -7.84603562     2.30944726    -4.02284992    -0.60925517     0.32644946     0.16410433
O      -7.81990126     2.44078979    -8.03373493     0.21791068    -0.14592052     0.14294773
O      -3.98545972     6.27582507    -3.87871231     0.66354582     0.82590560    -0.17686356
O      -4.03716773     6.40055715    -7.92388082     1.09214881     0.03746710    -0.16002052
O      -7.75238653     6.24369450    -3.86518630    -0.13583132     0.81243606    -0.02239934
O      -7.87600420     6.36932753    -7.92713584    -0.43085000    -0.37542428     0.33737483
O      -3.70069229     4.30003866    -2.05110411    -0.17507289     0.34643561    -0.10219898
O      -3.77158578     4.44093014    -5.95978524    -0.10435569     0.19936750    -1.96740084
O      -7.53204508     4.39520447    -9.99524805    -0.73289785    -1.27174993     0.32875933
O      -7.78877809     4.36793484    -5.94389186    -0.15983015    -0.02170645    -0.47630505
O      -4.00736599     0.11067739    -2.03090913    -0.43094326    -0.11237864     0.03073806
O      -4.01658303     0.04673510    -6.11828848    -1.00271063    -0.16551915    -0.25634221
O      -7.68347116     0.18705719    -5.91221649     0.62342271    -1.23558860    -1.31147505
O      -3.92255676     8.72203881    -5.91279064     1.52654332    -0.03790720    -0.82802887
O      -9.70577394     4.27611658    -8.29375939    -0.17831670    -1.31384192     1.34544669
O      -9.69223088     4.73318139    -4.03746630    -0.62543994    -0.06668607     0.28041404
O      -5.85814507     4.20812488    -4.11196840     0.38970087     0.08261954     0.15609872
O      -5.81444654     4.50508287    -8.03309799    -0.28775752    -0.83369930     0.33502877
O      -2.09976083     0.27308408    -4.05066322     0.59130106     0.00456807     0.58601167
O      -5.90981063     8.47306644    -8.16514036    -0.05380404     0.33000344     1.09889321
O      -9.74966025     8.54904073    -3.95089544    -0.09835238    -0.08179348    -1.15602695
O      -5.84441784     0.64089318    -8.20195233    -0.18923313     0.15831524     0.77689996
