# total energy = -630.43857477 eV

CRYSTAL
PRIMVEC
        0.00279571     0.02951795    -7.98606283
       -7.83802570     0.01298533    -3.99532603
       -3.92160916     8.71933433     0.00634407
PRIMCOORD
56 1
Li     -3.98079059     2.64938051    -1.86819542     0.17681181    -1.07167932    -0.20769818
Li     -3.90082231     2.13178984    -6.08294648    -0.09156274    -0.10511913     0.56568491
Li     -7.84403845     2.41524128   -10.04025156    -0.29213406    -0.27062580     0.47648970
Li     -7.72199205     2.47705266    -5.95012253    -0.55746067    -0.40716006    -0.05957724
Li     -3.96798063     6.60247137    -1.90975480     0.30216325    -0.22338338    -0.29185359
Li     -3.87227199     6.48208585    -5.81908581    -0.25173439    -0.15578566    -0.53898258
Li     -7.83623699     6.48335507    -9.83329638    -0.50291850    -0.27004432    -1.11234108
Li     -7.85621258     6.52069337    -5.93044217     0.41960687     0.02884090    -0.45354384
Ti     -2.04563623     2.14735413    -3.91936922     1.12490868     0.86723540     0.05521325
Ti     -5.84217023     6.76241600    -8.05289528    -0.26363544    -0.27507527     0.99494304
Ti     -7.74277224     4.39050899    -7.87292336    -0.66428374    -1.70216610     1.41693789
Ti     -7.78515635     4.32868865    -3.87896396     0.45404952     0.25346245     1.21256063
Ti     -3.80212547     4.33308548    -7.66731921    -0.31681800     0.08896607    -0.70453807
Ti     -3.89189632     4.47423685    -3.82886736     0.64932236    -1.46755674     1.53991214
Ti     -6.24960522     8.71120108    -2.07848969     1.69844801     0.82991727     0.12236480
Ni     -5.88782115     2.34294505    -8.11899094    -0.41983659    -0.63578919     1.15730614
Ni     -5.81506439     2.13106726    -3.93623337    -0.70313740     0.17569132     0.08697124
Ni     -9.73986988     6.58631632    -7.80580306     0.33517164    -0.11520469     0.29177637
Ni     -9.70368597     6.40147266    -4.10413138    -0.66151513    -0.43699930     0.59456543
Ni     -1.92360622     2.23867975    -7.90190723     0.02724924    -0.40826788    -0.71980357
Ni     -5.71451350     6.42770933    -4.16163262    -1.80212892     1.17188740     0.71504160
Ni     -2.05991506     0.04918941    -5.93292120     0.15229553    -0.52032787    -0.48410473
Mo    -10.02256928     8.68023905   -10.21095009    -0.02387450     1.15407551     0.06066395
Mo     -5.91406213     0.11430733    -6.33620178    -0.66148366    -0.14915766     0.51016190
O      -1.90691950     1.93789446    -1.90559620    -0.63916489    -0.61947918    -0.53239753
O      -1.97106364     1.87235090    -5.96090214    -0.41835241     0.15967187    -0.13646834
O      -5.99089261     6.79708243    -2.04307890     1.05082069    -0.48057783     0.44016251
O      -5.90055926     6.95473083    -6.05501954     0.12626844    -0.75687915     0.68053619
O      -5.88338588     1.95370784    -9.99312260     0.05593643     0.06624777    -1.25395305
O      -5.81131324     2.00271955    -5.81891385    -0.07918159    -0.61307989    -0.28462263
O      -9.79362648     6.89995130    -9.71407598    -0.48703211    -0.05225663    -0.10101616
O      -9.71312493     6.92580225    -5.87353591    -0.91790995    -0.63391170    -1.59507918
O      -3.94934905     2.36350900    -3.85746512     0.16470339     0.03594233    -0.55081278
O      -3.85176461     2.41107323    -7.96750678    -0.19115392     0.38317021    -0.00684238
O      -7.83443470     2.34160675    -4.00427504     0.53703030     0.90345973     0.09292722
O      -7.89923028     2.36252471    -7.97633524     1.41894423     0.61130979    -0.15137784
O      -3.72815520     6.36896914    -3.86650538    -0.42181059     0.67346993    -0.46180013
O      -4.01954411     6.26648402    -7.87728857     0.98015156     0.69624141    -0.86435714
O      -7.84031722     6.26786374    -4.13031384     0.31923754     0.15580805     1.07871765
O      -7.80345835     6.27214812    -8.03467218     0.23104094     1.27000617     0.63184010
O      -3.93951236     4.41489945    -2.03210769    -0.36552510     0.75524726    -0.50960282
O      -3.91565234     4.43735042    -5.93196716     0.48062722    -0.08841193     0.79031732
O      -8.02500170     4.36021972    -9.99249300     0.60587138     0.28680353    -1.42702803
O      -8.02289934     4.47972776    -6.06382969     0.53448109    -0.54313257    -0.47705107
O      -7.97887250     8.69143502    -9.87139429    -1.20509750     0.19379285    -0.44640382
O      -7.96172912     8.69296920    -6.09427304     0.07264985     0.64995970    -0.01799540
O      -7.71636204     0.05704964    -6.05481467     1.52633140    -0.56414457     0.09389614
O      -0.03185355     0.08862046    -6.18605292     0.48582782    -0.58755775     0.66524629
O      -1.91015221     4.01662205    -3.96334096    -1.51204689     0.47446921    -0.44923832
O      -9.78501886     4.37826869    -4.11941695     0.15206612     0.64507192     0.27687299
O      -5.83382874     4.53830306    -4.17612647    -0.54400729    -0.21608414     0.40251564
O      -5.82829069     4.26348648    -7.86628323    -0.20419547    -0.32243333    -0.87088970
O      -1.91112113     0.14284690    -3.92949553    -0.44453089    -0.00166121    -0.51085112
O      -5.81356908     8.55587142    -8.10536210    -0.16661256     0.25746396     0.25624157
O      -9.78768263     8.55389129    -3.98954668     0.41222385    -0.10614743     0.09221315
O      -5.97607257     0.45581362    -8.13666656     0.16699043     0.90431527     0.08562892
