# total energy = -630.19949680 eV

CRYSTAL
PRIMVEC
        0.00279571     0.02951795    -7.98606283
       -7.83802570     0.01298533    -3.99532603
       -3.92160916     8.71933433     0.00634407
PRIMCOORD
56 1
Li     -4.16740329     2.13640719    -2.03139239     1.08285868     0.37346801     0.39056978
Li     -3.74876499     2.41917726    -5.94697112    -1.17131715     0.04885683    -0.51079759
Li     -7.78486012     2.28653922    -9.95130204    -0.37293401    -0.47463710    -0.20949944
Li     -7.81037181     2.43209829    -5.85578312     0.02562971    -0.16903418    -0.84493530
Li     -3.88946082     6.45123404    -1.80641312     0.20743960     0.06697239    -0.72175802
Li     -4.02039293     6.49846789    -5.91348404     0.33352853     0.15937026     0.26197209
Li     -8.02633703     6.40845322    -9.83633773     0.43320566     0.17783166    -0.48838711
Li     -7.81549516     6.19795870    -5.98048080    -0.19813670     1.37075781     0.95476343
Ti     -1.94272707     2.36182753    -4.09397614    -0.36812536    -0.09669828     0.55153530
Ti     -5.84955552     6.81817386    -7.95170412    -0.76838104    -0.70211933     0.16852632
Ti     -7.73481433     4.51021035    -7.75141826     0.33086592    -0.45222212    -2.78911039
Ti     -7.88788938     4.25531210    -3.67077086     0.11360055     0.17664002    -1.30924671
Ti     -3.79970795     4.42782161    -7.75671545    -0.36931889    -1.09941049    -0.66586855
Ti     -4.14374769     4.44788266    -3.69354492     0.55978287     0.21065014     0.83436695
Ti     -5.62247812     8.72555003    -2.11106416     0.05554578     0.38110926    -0.83210754
Ni     -5.91896577     2.12278503    -7.91622019     0.58742397     0.33088341    -0.51372043
Ni     -5.95389032     2.30193955    -4.07391149     0.84930822    -3.07826552    -0.49381224
Ni     -9.91713004     6.41874353    -7.97432120    -0.03643209     0.21014191    -0.44603785
Ni     -9.70735531     6.54434710    -3.86567709    -1.50656373     0.61642639    -0.96847629
Ni     -1.92714305     2.02388790    -8.08671936    -1.30113468    -0.59322922     0.19043580
Ni     -5.96362459     6.61446608    -3.96045459    -0.19050711     0.51617220     0.32571213
Ni     -1.89435704     0.07753760    -5.92834423    -1.19911241    -0.44382565     0.24042306
Mo     -5.94789965     0.04432235   -10.31220663    -1.60053889    -0.56721243    -1.06098755
Mo     -9.62246166     8.67479779    -6.36468775     0.78729782     0.69775098     1.48496968
O      -2.18352888     1.87876138    -2.10084648     0.92570780     0.53110112     0.78663601
O      -1.99154231     1.87943218    -6.08982416     0.72868394     0.82088587     1.24110934
O      -5.88793327     6.82672372    -1.93648378    -0.39468744     0.11994318    -0.48456554
O      -5.93416750     6.93842566    -5.85712326    -0.02474498    -0.19721546    -0.53175723
O      -5.95463851     1.90291012    -9.79649087     0.01829566    -0.15250657     0.19278055
O      -5.80958322     1.95249728    -6.10803359    -0.64269475    -0.89268720     0.38102876
O      -9.89339088     6.78788170   -10.08260193    -0.42522052    -0.22773107     1.06634238
O      -9.70911406     6.81043597    -5.67480108    -0.23271523     0.89668222    -1.29208421
O      -4.03925789     2.51972702    -4.01028383     1.20274465    -0.00951867    -0.10494172
O      -4.07578088     2.46899569    -7.94359474    -0.10219563     0.10642396    -0.18348787
O      -7.80898444     2.22647645    -4.05844168     0.02439290     0.98168434     0.62538778
O      -7.86102240     2.45428658    -8.06996019    -0.42668900     0.30239354     1.41566977
O      -4.04588504     6.40488848    -3.96473709     0.28330717    -1.04228724     0.28739546
O      -3.96532062     6.43340706    -7.93817967     0.72066946     0.53185098     0.52547815
O      -7.92779183     6.18120692    -3.87759762     1.33391658     0.28269037    -0.12688976
O      -7.91215894     6.47270359    -7.95947122    -0.02803249    -1.14557690     0.38713219
O      -4.05347795     4.48976343    -1.89237728     0.46179919    -0.09603664    -1.50657591
O      -3.72515370     4.49080488    -5.99823346    -0.48171316    -0.07028937    -0.10934063
O      -7.90307573     4.28583189    -9.92718945     0.08008244     0.20164664     0.97844633
O      -7.86996075     4.42142408    -6.05038623     0.11299524    -1.00289107     1.70697205
O      -8.14646139     8.58905037   -10.15681150     1.05951822     0.61614702     0.59408073
O      -7.85450655     8.73483122    -6.24715054    -0.78786298     0.24897889     0.64441088
O     -11.65514698     8.70487027    -6.10485760    -0.32341746     0.22116090     0.16083076
O      -0.05787256     0.03613708    -5.83650743     1.42814820    -0.15099630    -1.06995190
O      -2.00732170     4.36894092    -3.97579424    -0.31260234    -0.12292923     0.13189554
O      -1.85991142     3.79025315    -0.08981685    -1.37117276     0.90687072    -0.01598380
O      -5.95917794     4.05406993    -4.14657287    -0.52526942     1.99025832     0.35338232
O      -5.87540690     4.82487724    -8.08822776    -0.03415399     0.17696693     1.10637382
O      -2.10149969     0.43273348    -3.95001325     0.14774623    -0.68212113    -0.59159810
O      -2.17389985     0.06018200    -8.05739316     1.36235691    -0.58620189    -1.09317465
O      -5.92925784     0.34836859    -4.14734412    -0.21561883     0.56445849     0.48115528
O      -9.92275687     8.27777561    -8.10937947     0.18081467    -0.61453546     0.33523515
