# total energy = -630.79553283 eV

CRYSTAL
PRIMVEC
        0.00279571     0.02951795    -7.98606283
       -7.83802570     0.01298533    -3.99532603
       -3.92160916     8.71933433     0.00634407
PRIMCOORD
56 1
Li     -3.93443385     2.17455490    -1.87395342    -0.07574793     0.12916616    -0.02635251
Li     -3.72187000     2.04974253    -6.05323717    -1.01810776     0.68989052     0.14811591
Li     -7.85476440     2.17270989    -9.88232249     0.16696993     0.24146387    -0.51356607
Li     -7.84096833     2.42417891    -5.92476303    -0.08100585     0.00668170     0.21613208
Li     -3.78930482     6.27496305    -2.02373752    -0.18083410     0.16053704     0.75051234
Li     -3.80411160     6.49993718    -5.89426428    -0.34571941    -0.13472279     0.02541535
Li     -7.82880228     6.66647721    -9.89362587    -0.07223832    -0.43959562    -0.29370498
Li     -7.88095207     6.30900698    -5.86036260    -0.15609003     0.71441138     0.04646467
Ti     -2.01622709     2.31885510    -3.96000474    -0.08493486     0.91031962    -0.21375946
Ti     -5.84451838     6.75988363    -7.92464327    -0.16283385    -0.29138183     0.05520289
Ti     -7.74756779     4.43766932    -7.77169731     0.04417656    -0.08308612     0.27008052
Ti     -7.95931414     4.40613214    -3.70642900    -0.21644496    -0.22693748     1.45018270
Ti     -4.01158474     4.33825816    -7.73713308     0.70680776     0.22971772    -1.00496056
Ti     -4.14322997     4.34675973    -3.72565834    -0.52070256    -0.11994324     1.10280627
Ti     -5.63861744     8.65217771    -2.30519724    -0.15743256     1.29858458     1.98577238
Ni     -5.96604144     2.01704532    -7.93764252     2.13896531     0.74305640     0.46160765
Ni     -5.84118010     2.18440981    -3.91575650    -1.42087471     1.98451615    -0.69220006
Ni     -9.76199983     6.38287475    -8.01820877    -0.74639436    -0.48438618    -0.07019168
Ni     -9.87050745     6.63466718    -3.98428995     0.74784897    -0.03800774     0.14229091
Ni     -2.01242254     2.16449502    -7.98378860     0.78001844     0.73013107    -0.27118358
Ni     -5.92004846     6.69141673    -3.98022197    -0.28424825    -0.65690204    -0.14091197
Ni     -5.73108188     8.69692093    -5.98557013    -0.86759270     1.05744436    -0.42845892
Mo     -9.77116516     8.73498218   -10.28102041    -0.96060213    -0.45042939    -1.62079658
Mo     -5.80156948     0.12745444    -6.35427566     0.63625965     0.19788137     0.74596076
O      -1.95490962     1.96277421    -2.07275584    -0.16708441    -0.66530613     0.06896180
O      -1.89932725     1.89168813    -6.03479205     0.59317725    -0.89106644     0.20482239
O      -5.89310430     6.83196378    -2.03963794    -0.23125704    -0.72541151    -0.26616537
O      -5.91143988     6.85940546    -5.93329720     0.30019776     0.14841239     0.41662759
O      -5.90099644     1.91575010    -9.75568323    -0.67168557    -0.32811731    -0.48341206
O      -5.93616215     2.03850712    -6.04910195    -0.17901502    -0.50062175    -0.13302984
O      -9.70697683     6.74302674   -10.11072480    -1.03302157     0.63208186     0.33563603
O      -9.85515897     7.00707361    -5.81794186     0.37683093    -0.92121093     0.16665190
O      -3.94526991     2.35212530    -4.04941952     0.98681457     0.35048763     0.29146230
O      -4.00337628     2.43447541    -7.96619060    -0.06199629    -1.36478233     0.22591593
O      -7.91485937     2.47514293    -4.01109584     0.06550449    -0.95525674     0.46824432
O      -7.71952681     2.35546660    -7.95673384    -2.46171082     1.28870756     0.08475533
O      -3.98915368     6.25294787    -3.85787933     0.36279061     0.09144041    -1.06484490
O      -3.94228179     6.37042598    -8.00736813     0.60913982     0.03448078     0.22659034
O      -7.91345433     6.37033211    -3.88817966     0.42765445     0.27046632    -0.77481796
O      -7.86326079     6.44541220    -7.96942396     0.21689317    -0.65724212     0.45947634
O      -3.89853309     4.20103871    -1.93577510    -0.40818624     0.63331390    -1.97692641
O      -4.07165386     4.36545850    -6.01675161     0.52742999     0.19525829     1.76140885
O      -8.10024298     4.49914967    -9.87240423     0.57635507    -0.30915669    -0.69917123
O      -8.03192748     4.48911181    -5.95281715     0.66324537    -0.34688882    -1.79452314
O      -4.09314149     0.11849234    -2.06924847     1.07312740    -0.76635040     0.15873849
O      -4.05319915     0.22371888    -6.12732531     0.45006755    -0.83121017    -0.18912275
O      -7.77742192     0.03327491    -6.17735736    -0.02571911     0.40108373     0.11963223
O     -11.65037821     8.59296103   -10.20636065     0.42841467     0.55899371     1.03693863
O      -2.00311146     4.30977298    -4.01488795    -0.22085878    -0.57322779     0.10450222
O      -2.02376821     4.09467233    -0.10921104    -0.40458066    -0.12489253     0.72779702
O      -6.04044313     4.01948177    -3.81551333     1.29271007     0.75078362    -0.32997287
O      -5.89298180     4.76828601    -7.98725917    -0.58234367    -0.42925182    -0.21066155
O      -2.02814257     0.31520483    -4.05143208     0.21139392     0.07900939    -1.39434878
O      -5.78453432     8.57554444    -8.04380549    -0.35774805     1.00803770     0.01334302
O      -5.85964882     0.47211039    -4.15478575    -0.07370304    -2.30701951     0.56756695
O      -9.84006583     8.22884488    -8.09296594     0.00811536    -0.37909790    -0.42098974
