# total energy = -630.88412279 eV

CRYSTAL
PRIMVEC
        0.00279571     0.02951795    -7.98606283
       -7.83802570     0.01298533    -3.99532603
       -3.92160916     8.71933433     0.00634407
PRIMCOORD
56 1
Li     -3.82261543     2.27630077    -2.03826947    -0.76960719     0.11585437     0.64973713
Li     -4.00710195     2.33921067    -5.92079660     0.39607416    -0.45000931    -0.13098056
Li     -7.84411719     2.24850437   -10.12290698     0.30226144    -0.16539159     1.07161498
Li     -7.56951666     2.41616438    -5.93816887    -0.97429712    -0.09325626     0.21077593
Li     -4.00350932     6.43059763    -1.95035473     0.07902232    -0.06568176    -0.17881775
Li     -4.07633626     6.45627936    -5.84261802     0.60268351     0.04662429    -0.41387726
Li     -7.82548944     6.35411911    -9.77744091    -0.51523117     0.13905122    -1.26150683
Li     -7.74245631     6.67589652    -5.95288441    -1.02609018    -0.12292497     0.58949403
Ti     -1.87295369     2.28630560    -3.88186561     1.03858581    -0.38176087    -1.49413720
Ti     -5.93207513     6.70816050    -7.95680226     0.83906508     1.17069883    -0.20841357
Ti     -7.75518467     4.44103198    -7.65933106     0.32511360    -1.43486650    -0.83594617
Ti     -7.78921630     4.33673741    -3.70936045     0.56995836     1.72424831    -0.99753368
Ti     -3.78949930     4.37577459    -7.69676516    -0.45071966     0.47616518    -1.23398142
Ti     -4.06268324     4.32639306    -3.77317494    -0.06526131     0.98033051    -0.19992559
Ti     -2.16083952     0.04963171    -2.12913135    -0.18586352    -1.26383086    -0.00415914
Ni     -5.75475612     2.28777554    -8.01358480    -1.79044871     0.29984544    -0.51076605
Ni     -5.87073778     2.07650088    -4.03451868    -0.06225474    -0.11600458     0.56108236
Ni     -9.96907518     6.59467797    -7.90515892     1.47969793     0.16473374    -0.69401829
Ni     -9.80157892     6.42278731    -4.12532384     0.99205103     0.01103109     0.18769631
Ni     -1.92634408     2.23016158    -7.85992394    -0.22045503    -0.49499114    -0.84625293
Ni     -5.85342257     6.66296630    -4.01019069    -0.86240359     0.03472598     0.44339929
Ni     -2.07644207     0.03033978    -5.96153467     0.01851748     0.10615314    -1.00110990
Mo     -9.90407207     8.73957833   -10.34708121    -0.89453561    -0.19248158     0.95761064
Mo     -9.90748331     8.64311792    -6.38382519     1.27695649    -0.21416373    -0.10354020
O      -1.95158348     1.98967457    -1.97521925     0.27882460    -0.66265697    -0.03859556
O      -1.96420824     1.87562810    -6.01527360    -0.39216752     0.00222082     0.65454459
O      -5.99840317     6.81639247    -1.89740834     0.74999391     0.29320176    -0.32917028
O      -5.95172617     6.89047798    -6.01589957     0.71188534     0.15265896     0.22544923
O      -5.82095201     1.92959691   -10.07632517     0.09954837     0.37515899    -0.62919798
O      -5.85628454     1.90672023    -5.91427809    -0.02863306    -0.20483760     0.24918549
O      -9.76095330     6.93764880    -9.70299494    -0.57668096     0.27401269    -1.06642949
O      -9.77574372     6.67176906    -6.13230242    -0.64920285     0.76367624     1.33877797
O      -3.92792966     2.40705062    -3.97763305     0.15913052    -0.31906706    -0.25544415
O      -3.93641636     2.48703701    -7.99457038     1.49915207    -0.31234646     0.24934739
O      -7.82115535     2.40861608    -3.97896217     0.12693937    -0.30211915    -0.32069487
O      -7.75620230     2.40229121    -7.93735808    -0.32177509     0.18988687    -0.00671115
O      -3.93322957     6.41415232    -3.97448078     0.03447250    -0.68286813     0.27278894
O      -3.96754702     6.34819214    -8.02213614    -0.20352064    -0.21963803     0.49884474
O      -7.85197135     6.45075984    -3.93816783    -0.43566914    -1.32790813    -0.15848327
O      -7.89288726     6.31505582    -7.96381612     0.29129697     0.16723722     0.65375893
O      -3.78156734     4.34167735    -2.04610576    -0.39229302     0.29104914     0.28691737
O      -3.73938014     4.42723644    -5.94925513     0.35755920    -0.04290863     0.88063267
O      -7.58101472     4.29751475    -9.95753836    -0.58929262     0.15082071     0.65124312
O      -7.58291196     4.35478339    -5.94427539    -0.32299495     0.01699341     0.46690916
O      -3.97085340     0.03214648    -2.23094889     0.26528465     0.48617609     0.34403623
O      -8.06063728     8.71399204    -5.99085400    -0.69817377    -0.35602871    -0.19977429
O      -3.88725596     8.62647301    -2.09581279     0.94323325     0.18346457     0.16863869
O      -7.74719499     0.12741249   -10.06756752     0.38647552    -0.32719382    -0.45377641
O      -1.85166029     4.09865449    -3.85574792    -0.65298045     0.34667639    -0.61326315
O      -9.63989125     4.51257120    -4.13428103    -1.43195051     0.43559747     0.62577991
O      -5.86352429     4.80497153    -4.09314098     0.06774004    -0.28547505     0.38440216
O      -5.76252501     4.34975616    -7.90283892    -0.11364957     0.04299160    -0.28072753
O      -1.82801751     0.06661183    -4.05821753    -0.45943683     0.19039418     1.13989836
O      -6.16037235     8.60964563    -7.94613720     0.82193496    -1.05583541    -0.37062141
O      -9.90054582     8.34660996    -4.13071960     0.08431674    -0.47310297     0.06714978
O      -5.86120672     0.41349966    -8.17863062     0.29197104     0.83293198     0.80968344
