# total energy = -630.67026858 eV

CRYSTAL
PRIMVEC
        0.00279571     0.02951795    -7.98606283
       -7.83802570     0.01298533    -3.99532603
       -3.92160916     8.71933433     0.00634407
PRIMCOORD
56 1
Li     -4.01194071     2.24044293    -1.88851290     1.08147667     0.28967505    -0.14050248
Li     -4.07327163     2.03440931    -6.00830388     0.53024483    -0.06768864    -0.06193078
Li     -7.76402468     2.19374963    -9.98032968     0.10127885     0.08035145     0.00161892
Li     -7.90685694     2.13927933    -5.88470654     0.33408807     0.18947831    -0.10655248
Li     -4.10402739     6.38577660    -2.04173267     0.43331388     0.28508762     0.23800141
Li     -3.90233027     6.76183699    -5.78977906     0.34970977    -0.31541960    -0.26943449
Li     -7.87597049     6.73372107    -9.81438090    -0.21977022    -0.36741277    -0.77670851
Li     -7.73342562     6.44485994    -6.06514286    -0.60057985     0.14586507     1.09887587
Ti     -1.96724133     2.26256518    -4.22536049    -0.12474589     0.37270028     0.79364200
Ti     -5.87650722     6.75608792    -7.99985586    -0.31579337    -0.07386404     0.00565092
Ti     -7.83672782     4.36032936    -7.70409247     0.48884209    -0.54992167     0.20520793
Ti     -7.79352328     4.31003379    -3.63326573    -0.71304017     0.86831820    -0.90989309
Ti     -3.96368851     4.41135542    -7.76007661     0.17007665    -2.16331436     0.87508180
Ti     -4.00090421     4.42368773    -3.74299000    -0.16967830    -0.79440822    -2.10576031
Ti     -1.97861934     0.05629804    -2.18050381     0.48598790     1.18274685    -0.70359971
Ni     -5.88063414     2.27314405    -7.95931337     0.48463509     1.16322629    -0.31392617
Ni     -5.91934558     2.24761459    -4.04071862     0.40118369     0.45499831    -0.24018673
Ni     -9.82743966     6.44036310    -7.81766320     0.29061078     0.20179692    -0.74212654
Ni     -9.91721932     6.17258839    -3.95780965     1.18908923     0.93329132    -0.45375035
Ni     -1.99057485     2.27010503    -8.01019870     0.50280085    -0.05546792    -0.04895769
Ni     -5.95698052     6.52838780    -4.13883569    -0.36904799    -0.13326707     1.15716726
Ni     -5.78339506     8.73622739    -6.04735118    -0.35352069     1.05212275     1.12828160
Mo     -5.79853393     0.15654539   -10.27731829    -1.55097851    -1.01643352     0.93964386
Mo     -9.87594586     8.60756544    -6.22616558     0.88399902     0.58674796    -1.66443919
O      -2.01406944     1.91569499    -1.95034085     0.16957535     0.70625201     0.45674894
O      -1.88323481     1.92826994    -6.08186689    -0.48298307    -0.57119809    -0.19621866
O      -5.96637824     6.93061144    -2.05054216    -0.03940809    -2.38322735     0.38517516
O      -5.85380225     6.92691172    -5.98164060     0.07108022    -0.65691224    -0.17291719
O      -5.79219193     2.16010012   -10.02875882    -0.87866378    -1.16028587     0.21249153
O      -5.89748696     2.00607517    -5.99398497    -0.98426152    -0.44956582     0.43997531
O      -9.75362893     6.98496987    -9.96764392     0.07680012    -0.33755190     0.68764041
O      -9.74987603     6.73083827    -5.97713781    -1.15322705    -0.27597024     0.48998571
O      -3.93760773     2.48264824    -4.05720374     0.26338366    -0.65285624    -0.48678528
O      -3.85739605     2.33197352    -7.93317471    -0.79992659     1.44013464     0.18923722
O      -7.90653146     2.38809760    -3.95297739     0.46256465    -0.15399932    -0.32150317
O      -7.84006442     2.40714393    -7.98932176    -0.29277987    -0.40631803     0.16489651
O      -3.88055944     6.33559984    -3.91729628    -0.05281335     0.85890015    -0.10327479
O      -4.01381859     6.33789686    -8.07644264    -0.11702369     0.24727224    -0.10724206
O      -8.03828156     6.25306815    -4.01635417     0.77558605    -0.00662293     0.58291818
O      -7.81702339     6.32995746    -7.94875801     0.25170196     0.33807363    -0.22463217
O      -3.84230789     4.39456053    -2.04651745    -0.01045403     0.19734777     2.27099384
O      -3.84510746     4.69110298    -6.02769395     0.04942665    -0.49342596    -0.14685886
O      -7.81842078     4.32423409    -9.88701026    -0.16288212     0.36860717     0.52870994
O      -7.78278948     4.50429933    -5.96306443     0.03436026    -0.46629411    -0.41678529
O      -3.91876501     0.07674739    -2.12225381    -0.59683786    -0.04777011     0.40499775
O      -8.11266702     8.70334774    -5.97623714     0.23926794     0.10220309     0.11400279
O      -3.93791591     8.68122608    -1.90256841     1.06237447     0.09959894    -0.40522912
O     -11.54456151     8.74422670   -10.12047123     0.27073187     0.62864405     0.60841277
O      -1.91203017     4.12114842    -3.96049862    -0.94443137     0.81709542    -0.35265791
O      -1.92678489     4.22891060    -0.05928562    -0.98336876     0.18031755     0.15549097
O      -5.91692510     4.32875997    -3.95133756     0.72155724    -0.05347719    -0.53535364
O      -5.89195515     4.10614497    -7.98619431     0.78833965     1.57424801     0.04618454
O      -1.86575056     0.35818046    -4.03218827    -0.18512215    -1.18523146    -0.69233645
O      -5.89306621     8.52541229    -7.91995186    -0.20057351     0.71954137    -0.46443842
O      -5.87127168     0.23765258    -4.05122892     0.07708509     0.78124440    -1.42348533
O      -5.81020290     0.53465635    -8.04098433    -0.71996339    -2.06579450     0.52418567
