# total energy = -630.76827489 eV

CRYSTAL
PRIMVEC
        0.00279571     0.02951795    -7.98606283
       -7.83802570     0.01298533    -3.99532603
       -3.92160916     8.71933433     0.00634407
PRIMCOORD
56 1
Li     -4.00987046     2.07780606    -1.86582183     0.28686534     0.10572518    -0.37738941
Li     -4.10568032     2.47230874    -5.82527744     0.61029765    -0.51279325    -0.26764574
Li     -7.92897733     2.11142331    -9.86148668     0.37606934     0.30992602    -0.63412101
Li     -7.85194376     2.41776417    -5.87687470     0.15916242    -0.40972348    -0.08253823
Li     -3.89145161     6.38469878    -1.95141491    -0.13070875     0.18758280     0.06676588
Li     -3.86802068     6.35551457    -5.98888169    -0.14424123    -0.11775981     0.45629386
Li     -7.86400144     6.65955002   -10.02642638     0.01296372    -0.19641970     0.20334887
Li     -7.91131247     6.65184910    -6.01160454    -0.00717245    -0.48753213     0.40903873
Ti     -1.93101250     2.44127789    -3.92569549    -0.56277113    -1.09198406     0.16635523
Ti     -5.89085744     6.74546314    -7.83140124     1.12678037     0.08071965    -0.95666091
Ti     -7.64088120     4.42573954    -7.84623615     0.14544586    -0.01515745     0.81470636
Ti     -7.87479279     4.35914459    -3.67073409     0.54777063     0.38113762     1.00699335
Ti     -3.91660192     4.28597270    -7.75545617     0.36518043     1.01674459     1.78920883
Ti     -4.09883083     4.38728607    -3.72965868    -0.65589452    -0.93925242    -0.92139892
Ti     -5.73476461     8.69449560    -2.22919626     1.40625634     0.41408131     0.06346014
Ni     -5.92588027     2.03537949    -8.00090853     0.71497198     0.32134088     1.17843031
Ni     -5.95482913     2.20492050    -3.91686235     0.39635965     0.35879413    -0.36983685
Ni     -9.88478958     6.36429416    -7.96899406     1.38822279     0.59665236    -0.76972525
Ni     -9.76552813     6.68239697    -4.03076208    -0.55763207    -0.75352529     0.23845905
Ni     -2.03285517     2.21648946    -7.98262682     0.57443880    -0.12863872     0.07250258
Ni     -5.90857008     6.58991777    -4.07627871     0.09404236     0.19795225     0.48776340
Ni     -1.99674506     0.15479999    -6.04711576     0.13731269     0.09842295     0.58252715
Mo     -9.87400066     8.70942932   -10.28118565     0.29824778    -0.73675261     0.53569631
Mo     -5.75177488     0.09695143    -6.27592252    -1.69546544     0.22946085    -1.30651538
O      -2.05002619     1.93470336    -2.02306447     0.38813208     0.67783542     0.31442640
O      -2.07303841     2.01891459    -6.12305882     0.42924635    -1.18566834     0.93969865
O      -5.86147168     6.85348430    -2.16119796    -0.48761346    -0.90560100     0.21135695
O      -5.89454689     6.99400087    -5.94807131     0.12570999    -0.32147228    -0.23038734
O      -5.87042730     1.94023777    -9.86449945    -0.39125583    -0.34679306    -0.49683529
O      -5.90212644     2.02809599    -6.04955107    -0.28759654    -1.13731599     0.15999474
O      -9.83952910     6.66228648   -10.01641313     0.15968418     1.34827445    -0.53319815
O      -9.84693610     6.77890941    -5.93966938     0.45885256     0.37040792     0.12755623
O      -3.94348208     2.35938949    -3.89910510     0.44133368     0.62802631    -0.22816907
O      -4.03551045     2.37475210    -7.91251687     0.12308425    -0.24305956    -0.57348948
O      -7.84446722     2.42631276    -3.93303793    -0.21975424    -0.81294145     0.01146641
O      -7.76808227     2.40497155    -7.99358080    -1.62611513    -0.07877009     0.12259871
O      -3.93748956     6.25633891    -3.99170600    -0.19236750     0.80317148    -0.26823417
O      -3.90743042     6.34474308    -7.93937054     0.07140439    -0.05634803     0.05532478
O      -7.84523135     6.26895059    -4.06444951     0.09683905     0.57607554     0.20871289
O      -7.76891271     6.39401251    -8.00322958    -0.54942694    -0.14686057     0.39892974
O      -4.02655338     4.41221792    -2.00047700     0.65323029    -0.36417512     1.33739213
O      -4.06570496     4.27692073    -5.90124343     0.42783595     0.94351611    -2.49229005
O      -7.86526346     4.34905723    -9.85869834     0.23917115     0.05153135    -1.10739355
O      -7.84614577     4.25303692    -6.07364362    -0.13384685     0.71933747    -0.71147010
O      -8.06324127     8.67238446    -2.12999353     0.66492282     0.17189523     0.31090396
O      -7.91087900     8.73511178    -6.02243441    -0.07934532     0.33832416     0.04951986
O      -7.74280405     0.04750332    -6.21786441     0.04471176     0.21292019     0.40873635
O      -7.67863427     0.13426031    -9.76621494    -0.31322351    -0.46894809    -0.89048882
O      -9.75158140     4.33857871    -8.09746067    -1.12439185    -0.34030866     0.56400784
O      -1.89071765     4.19613556    -7.82610932    -2.51715889     0.08389890    -1.18913607
O      -5.97049003     4.20339916    -4.06422455     0.45049385    -0.48191897     0.37802656
O      -5.79411013     4.66758960    -8.11296154    -0.09859720     0.60947265     0.55698306
O      -1.91036142     0.30898058    -4.02196473    -0.62661098     0.85107721    -1.02133802
O      -5.81496248     8.59822237    -8.09452885    -0.23339606    -0.00335812     0.32832793
O      -5.98263918     0.03534274    -4.16510623    -0.32460170     0.12445007     0.56487947
O      -9.65766940     8.24149937    -8.02534112    -0.59678613    -0.55100735     0.26484987
