# total energy = -631.06358452 eV

CRYSTAL
PRIMVEC
        0.00285542     0.02004370    -7.95977623
       -7.82940539     0.00763210    -3.98158109
       -3.91729101     8.74642787     0.01461334
PRIMCOORD
56 1
Li     -3.90769411     2.22638654    -1.87278664    -0.17385313     0.03015062     0.02422418
Li     -3.98442384     2.18814785    -5.97720891     0.12291938     0.27692962     0.18704700
Li     -7.78662679     2.35749064    -9.91333861    -0.50801527     0.09299186    -0.21521906
Li     -7.82496269     2.51625013    -5.78855182     0.02858029    -0.19411186    -1.28151826
Li     -3.90022069     6.27087563    -2.06302991    -0.01733094     0.46953828     0.65201558
Li     -3.92135479     6.70499549    -5.81865151     0.07101563    -0.31647854    -0.21902591
Li     -8.07398575     6.51102122    -9.97621720     1.22167041    -0.00836855    -0.10620493
Li     -7.82633089     6.43316970    -6.02210947     0.14350451     0.16370240     0.91908577
Ti     -1.98657177     2.09173049    -4.01725356     0.35137981     0.21783577     0.40320604
Ti     -5.90252616     6.58552757    -7.99768039     0.87797346    -0.05609827    -0.58153651
Ti     -7.94892947     4.44425916    -7.77812040     0.56960195    -0.81503348     0.49054861
Ti     -7.92422394     4.47380808    -3.81639881     0.42082941     0.79363895    -0.94941839
Ti     -3.83690308     4.29494203    -7.64730969    -1.55681171     0.69093747     0.69814549
Ti     -3.96837500     4.35362325    -3.74681453    -0.44719663     0.99737488     0.07033950
Ti     -1.64972716     0.02406552    -1.90114777     0.39039238    -1.11448363     0.35008800
Ni     -5.97759754     2.35614282    -7.99476987     1.07756373    -0.23304419    -0.51656739
Ni     -5.92426938     2.29650214    -4.02258454     0.00743822     0.33160572     0.48547741
Ni     -9.77409613     6.56124480    -7.90235052    -0.56031506     0.88384652     0.22196200
Ni     -9.95146398     6.51001989    -4.00243161     1.05757057     0.17540226    -0.51243344
Ni     -1.87692363     2.08840558    -7.82797864    -0.50258792    -0.09595528    -0.92620344
Ni     -5.83671833     6.62560606    -4.01697161    -0.47029542    -0.52206329     1.00188932
Ni     -5.85810059     8.73298836    -5.82997172     0.32523684    -0.93032582    -0.68296593
Mo     -9.84832147     8.76198132   -10.33217287    -0.61807497     1.21319495     1.51893874
Mo     -9.64370612     8.73722775    -6.28598018    -0.80102532    -0.52102895    -1.87224149
O      -1.87299996     1.88101887    -1.89311679    -0.42818278     0.90649448     0.47143392
O      -1.96026053     1.82102796    -5.92179169     0.28360292     0.34827196    -0.25257212
O      -5.84243788     6.75050504    -1.96827722    -0.41071233     0.54764849    -0.00127476
O      -5.78447150     6.86874075    -5.85560657    -1.20598757     0.63243568    -0.21545427
O      -6.01882716     2.06761126   -10.13155458     0.84001261    -1.03756556     0.36573274
O      -5.91295476     1.87322556    -5.86979884     0.00898967     0.18102601     0.15074910
O      -9.82381300     6.92355950    -9.75112032    -0.16220556    -0.28774077    -0.41499895
O      -9.77622649     6.78786828    -6.02829187     0.31687551     0.26362190    -0.17937455
O      -3.93138378     2.43367351    -3.95998213    -0.25002782    -1.16284244     0.10690534
O      -3.84943391     2.44769621    -7.87958927    -0.35367138    -1.36545086    -0.43193532
O      -7.83985430     2.52001384    -4.04088499     0.01224897    -0.64721964     0.99998119
O      -7.85537174     2.44918342    -7.92722980    -0.32331183     0.18971317    -0.07271048
O      -3.85896724     6.45556445    -3.96058702     0.18005587    -1.60784990     0.50690104
O      -4.02161485     6.26745598    -7.85413830     0.27509999     0.89784672    -0.47198426
O      -7.88813711     6.46550340    -4.03432879    -0.09455500    -0.60213907     0.35974984
O      -7.82654180     6.43023774    -7.97957640    -0.85807769    -0.75585216     0.17433238
O      -3.87879300     4.32649074    -1.95296893    -0.14464200     0.15016744    -1.37450765
O      -3.97932330     4.31821991    -5.87783718     0.34669471    -0.01295931    -0.42099272
O      -7.85262031     4.38425315   -10.05941902    -0.30109198     0.28564384     2.07402444
O      -7.88957752     4.45654304    -5.99108937     0.02305027     0.01156383    -1.13543147
O      -4.17342973     0.14032664    -9.99733129    -0.58811032    -0.19263347    -0.45490967
O      -3.95685825     0.06994697    -6.12496683     0.19159568    -0.55035911     0.54162565
O     -11.60311012     8.61260083    -6.04820059    -0.51607312     0.37558837     0.29707597
O      -3.90896198     8.66054629    -5.89491636     1.01096109     0.96338315    -0.79008247
O      -1.97927076     4.06486331    -4.11127101    -0.08258286     0.23101793     0.30711399
O      -9.88599011     4.64262127    -4.06066381     1.57749045     0.26961564     0.26748673
O      -5.89701639     4.53872510    -4.05288748    -0.09919236     0.24806038     0.09183578
O      -5.88730811     4.40839378    -8.03663578    -0.78594676    -0.26358682     0.33614071
O      -1.96655444     0.16677568    -3.75091077    -0.48789056     0.08044608    -1.67818635
O      -5.95826981     8.47678342    -7.94455058     0.59471395    -0.32349846    -0.46387450
O      -9.95687706     8.45633016    -4.18191297     0.43209769    -0.30596680     0.74845071
O      -5.96790647     0.46095029    -8.10304229     0.24625658     0.80389090     1.34771407
