# total energy = -630.31175284 eV

CRYSTAL
PRIMVEC
        0.00279571     0.02951795    -7.98606283
       -7.83802570     0.01298533    -3.99532603
       -3.92160916     8.71933433     0.00634407
PRIMCOORD
56 1
Li     -4.04923274     1.74385049    -1.99153269     0.35119326     0.64170593     0.44824306
Li     -3.85854347     2.32660066    -5.99076508    -0.41711354     0.01857264     0.10366386
Li     -7.81434709     2.32660249    -9.89670523    -0.08864771    -0.00697075    -0.30581079
Li     -7.93410191     2.17394186    -5.97435286     0.37945642     0.38073537     0.75811524
Li     -3.90203213     6.68881414    -1.79578181     0.56548603    -0.21790229    -1.50607287
Li     -4.02857828     6.37070480    -5.80597654     0.38001237     0.19289502    -0.33668311
Li     -7.85606071     6.50943138   -10.00022517     0.34893401    -0.01079227     0.55958123
Li     -7.90652361     6.86773453    -6.04649948     0.23431715    -0.48354008     0.57439208
Ti     -1.97255817     2.35738003    -3.94118266    -0.14476618    -0.68560952    -0.81276501
Ti     -5.73946765     6.63526550    -8.05381617    -0.77703767     1.12213093     0.74244550
Ti     -7.73040132     4.43810430    -7.70699117     0.01213923    -0.08958672    -1.20463673
Ti     -7.82535467     4.43468792    -3.73094087    -0.69913614    -0.21201328     0.31088619
Ti     -3.91965945     4.34543850    -7.81485746     0.50984114    -0.91075112    -0.12838840
Ti     -4.10850039     4.28132124    -3.61303730    -0.69635676     0.52533436    -1.05254130
Ti     -1.86459650     0.07486291    -2.12559339    -0.29852730     0.12926720     0.15617866
Ni     -5.94318375     2.03827972    -8.00184451     0.04704067     0.67509830     0.61167202
Ni     -5.96850015     2.11218631    -3.88847186    -0.52280634     0.87322796    -0.81794534
Ni     -9.87182012     6.33083030    -8.00814311    -0.36058893     0.04669251     0.88321270
Ni     -9.74976935     6.57902203    -3.98363185     0.07315235     0.22854682     0.06202372
Ni     -2.03549979     2.29841011    -8.01136307     0.50576550    -1.20656160     0.30219686
Ni     -5.85638911     6.69873340    -4.06341973    -0.48755275     0.01517146     0.43477451
Ni     -1.92019898     0.11835331    -6.02739054     0.29146140    -0.14133954     0.20786289
Mo     -9.79363063     8.52700611   -10.35536293    -2.27339761     0.70967874     0.44072933
Mo     -5.81012561     0.19599255    -6.36683614    -0.24660096    -1.19255095     1.12821791
O      -2.03341082     2.02636327    -2.04034257    -0.54404473    -0.13451279     0.62938136
O      -1.92824054     2.02383831    -6.01317436    -0.15415728    -0.94291412     0.19756577
O      -5.76968168     6.89038972    -2.00333664    -0.99293273    -1.01292015     0.26639632
O      -5.93288059     6.94409699    -5.94684783     0.09326653     0.39823695    -0.37556281
O      -5.91853385     1.81406243    -9.89170099    -0.27584774    -0.29011217     0.23412942
O      -5.92355058     2.04238059    -5.94362597    -0.44075407     0.09392933    -0.92493465
O      -9.77814328     6.68727996   -10.00695838    -0.17131409    -1.12949258    -0.77313535
O      -9.87605142     6.96903935    -5.81282835     0.72680998     0.39487324    -0.71237083
O      -4.01914598     2.32416041    -3.86243183     0.99958848     0.54805448    -0.49298264
O      -4.09416765     2.38089284    -8.04492569     0.54255172     0.75970166     0.11097766
O      -7.88928133     2.43994711    -3.93354712    -0.17351374    -0.18092456    -0.21572051
O      -7.91063623     2.38413276    -7.86845434     0.90098315     0.10041124    -0.88676721
O      -4.05754348     6.21745970    -3.90764750     0.89763423     0.37376331    -0.88155105
O      -3.84496836     6.46654454    -7.99514314    -0.72584413    -0.54791763     1.17243345
O      -7.74534703     6.47866344    -3.93093217    -0.92832449    -1.08336438    -0.42146026
O      -7.96966448     6.33272134    -7.83798715     0.71242258     0.48892052    -1.24062927
O      -3.86268932     4.63282253    -1.96352784     0.26555874    -0.44301519     1.65512199
O      -3.86700127     4.36051864    -6.03473952    -0.14354713     0.26939179    -0.23425322
O      -7.73836239     4.43494263    -9.93698831    -0.81038796     0.26091607    -0.54862945
O      -7.74348408     4.46741654    -6.01444687     0.44829284    -0.38377150     2.35116217
O      -7.96992009     8.60138715    -9.97768230    -0.68310560     0.34075755    -0.35426465
O      -4.06490309     0.27769923    -6.19115613    -0.05454091    -0.73286171     0.22677731
O      -0.10436236     0.18226319    -1.99704813     1.87152556    -0.16621687    -0.32765864
O     -11.64951090     8.58119207   -10.01639866     1.12077265     0.24078873    -0.17379248
O      -9.71111529     4.31916786    -7.89893130    -1.80726533    -0.10993027    -0.52086736
O      -1.94256961     4.08932638    -0.14522100    -0.20170485     0.92583690     0.46292187
O      -5.97731076     3.99564655    -3.80276227     1.31878971    -0.00428660    -0.58324642
O      -5.83005747     4.66710042    -8.15878008     0.16644410     1.05332808     0.70153951
O      -2.04072933     0.33667621    -3.99365721    -0.01830286     0.35687720    -0.67010804
O      -6.02872042     8.65817412    -7.97943338     0.53477745    -0.59938485     0.00342157
O      -6.01024180     0.26921403    -4.18559722     0.63591076     0.27860767     0.71525940
O      -9.92909009     8.17987863    -8.04702072     0.01767722     0.20228889     0.01845698
