# total energy = -630.58103000 eV

CRYSTAL
PRIMVEC
        0.00279571     0.02951795    -7.98606283
       -7.83802570     0.01298533    -3.99532603
       -3.92160916     8.71933433     0.00634407
PRIMCOORD
56 1
Li     -3.81419300     2.12853716    -1.79147754    -0.98671644     0.24952262    -0.49544531
Li     -3.92578849     2.21700670    -5.81565297    -0.53797499    -0.24262688    -0.33875592
Li     -7.83102025     1.98326378   -10.01095415    -0.07684284     0.32406821     0.13691763
Li     -7.93986369     2.17318256    -5.92048228     0.68695408     0.22558842     0.18701233
Li     -3.84200772     6.29226426    -1.97530320    -0.31814534     0.30934666    -0.02962715
Li     -3.90357271     6.51243126    -5.87848024    -0.17602979     0.26741468    -0.27578628
Li     -8.03312857     6.33027730    -9.78944832     0.60727579     0.50267051    -0.73164069
Li     -7.81842057     6.70964303    -5.86151247    -0.42784052    -0.53108154    -0.38350617
Ti     -1.98748622     2.25375654    -4.03869556     0.52373463     0.81788172     0.90717498
Ti     -5.79831661     6.66836558    -8.03899203    -0.12153814     0.61042586     0.02556608
Ti     -7.73457294     4.39551606    -7.82275129     0.17174666     0.50421172     1.55598963
Ti     -7.80031802     4.37902177    -3.80480342    -0.83799617     0.51976325     1.04651199
Ti     -3.92009363     4.30093779    -7.72799891     0.54423241     1.99107430    -0.11673096
Ti     -4.04305253     4.41139382    -3.75758750     0.93064558    -0.49892778     1.76498732
Ti     -1.92970688     0.01687938    -2.16173705     0.24640866    -0.67559674     0.61955391
Ni     -5.87409269     2.10121471    -7.92747361    -0.58946498     0.07751392     0.17468935
Ni     -5.93535549     2.36980505    -3.98075544     0.66794367    -2.10275363     0.29194242
Ni     -9.87590781     6.37942561    -7.94702203     0.82803465    -0.02026854    -0.16238634
Ni     -9.78487506     6.63300839    -4.03399055    -0.07934144    -0.11109771     0.70904889
Ni     -2.09833189     2.25364508    -7.92843474     1.79807682    -0.58466735     0.07385368
Ni     -5.86504296     6.58446176    -4.08240003    -1.07997523     0.61384502     0.77064617
Ni     -5.81116128     8.72377808    -5.97921863    -0.39103469     0.36294439     0.11552642
Mo     -9.77149206     8.66913177   -10.32372591    -0.05986725     0.02111726     0.51628952
Mo     -5.81420281     0.04068575    -6.34048789    -2.37047865     0.65994896     0.00920619
O      -1.93708121     1.92400491    -1.94740912    -0.63217233    -0.01961505    -0.44560610
O      -1.97080207     1.82091814    -5.89410884    -0.01141059     1.02946532    -0.74237357
O      -5.96233180     6.82951123    -2.02936719     0.66712922    -0.40059083     0.25990741
O      -5.96722241     6.92624292    -5.95566813     1.01300755    -0.25495852     0.04475645
O      -5.97703372     1.94072982    -9.89048815     1.45784805    -0.41324286     0.97924195
O      -5.93184263     2.00890438    -5.98909169     0.47642050    -0.43482188    -0.83978313
O      -9.84235377     6.75421755   -10.13186789     0.19034805    -0.10821224     0.09614496
O      -9.85000647     6.80213401    -5.84205333     0.77782899     0.70023665    -0.62493245
O      -3.95253615     2.42529265    -3.85725541     0.93994182    -0.18218144    -1.03602862
O      -4.03172782     2.44464846    -7.79457505    -0.00397278    -1.36730767    -0.53105448
O      -7.80853687     2.44438396    -3.93079575    -0.75357717    -0.01882384    -0.35010156
O      -7.77850160     2.40849781    -7.96785695    -0.93756359     0.02770496    -0.13862090
O      -4.02609663     6.32889702    -3.94779006     1.07650066    -0.08643165     0.22083741
O      -3.89753385     6.49930234    -8.11240529     0.06157337    -0.77321160     1.12588712
O      -7.75572287     6.40834225    -3.93653390    -0.83974507    -0.79455965    -0.42945023
O      -7.88837723     6.43349088    -7.90468487    -0.15301789    -0.98165218    -0.35288786
O      -4.14364017     4.33670977    -1.93540248     0.47785546     0.50797206    -1.11847683
O      -4.18549340     4.64903529    -6.00354556     0.98771905    -0.85916720     0.13655779
O      -7.97521363     4.46620502    -9.96786786     0.02821247    -0.13764266    -0.77242316
O      -8.05872597     4.44613353    -6.05645526     0.69530486    -0.11787788    -0.07891503
O      -7.84641304     8.63681963    -2.02141462    -1.13809964     0.87985871    -0.08196098
O      -4.07926414     0.10983193    -6.01377739     0.73103088    -0.19954062     0.22257341
O      -7.69361666     0.09645193    -6.01798377    -0.55042210    -0.15360209    -0.22057134
O     -11.57550164     8.72089982   -10.00550751    -0.06276367    -0.27711938    -0.09653386
O      -1.99753895     4.27744860    -3.93725720    -0.89424643    -0.12292771    -0.74720172
O      -2.00094133     4.14785275    -8.03965544    -0.32983106     0.04849173     0.40139371
O      -5.87989893     4.14043340    -4.04735678    -1.51700578     1.20871658    -0.16062282
O      -5.86036758     4.69511629    -7.92881208    -0.65432096     0.40454079    -0.49774888
O      -1.89659584     0.25816383    -4.01146133    -0.07855502     0.34519357    -0.17882196
O      -5.81133091     8.60654766    -7.95042991    -0.33907135    -0.01639145     0.08820982
O      -5.88753507     0.51026491    -4.03026095     0.22960866    -0.37663864    -0.62836360
O      -9.82842197     8.21823439    -8.09879826     0.20813004    -0.06253778     0.36336294
