# total energy = -630.77658689 eV

CRYSTAL
PRIMVEC
        0.00285542     0.02004370    -7.95977623
       -7.82940539     0.00763210    -3.98158109
       -3.91729101     8.74642787     0.01461334
PRIMCOORD
56 1
Li     -3.88350321     2.14618220    -1.86217576     0.07563179    -0.07360002     0.13719200
Li     -4.09941033     2.18438210    -5.91958557     1.00794234    -0.01185726     0.31194695
Li     -7.89973352     2.63211284    -9.98881238     0.25658659    -0.47499174     0.53037149
Li     -7.74419677     2.13928263    -5.87058769    -0.31028357     0.10823776     0.01781730
Li     -3.93231872     6.49466385    -1.91605464     0.21890343     0.39876851     0.07862004
Li     -3.97973770     6.46898850    -5.92306371     0.15468470    -0.21397772     0.19206928
Li     -7.93008967     6.37782586    -9.82431904     0.09979731     0.47224821    -0.37606454
Li     -7.76353021     6.57454996    -5.85281056    -0.43341434     0.06958913    -0.03025635
Ti     -1.96958354     2.25092136    -4.06008975     0.41685444    -0.81516634    -0.01804265
Ti     -5.85880468     6.81344714    -7.98876376     0.32344966    -2.39142232     0.60720515
Ti     -7.87344827     4.49822348    -7.64965633     1.22928059    -1.22274943    -0.25374067
Ti     -7.79259720     4.42334291    -3.76363129     0.67226837    -0.13547232     0.34181815
Ti     -3.84750066     4.24828039    -7.65629471    -1.83100326     0.75796569     1.78114042
Ti     -3.89391362     4.44405485    -3.59096442    -0.51254837    -0.44263153    -1.18529662
Ti     -6.07498739     8.73501514    -2.13583794     1.38958097     0.33773902    -0.78606837
Ni     -5.94729688     2.34283374    -8.01452528     0.47180116     0.11582827    -0.01417113
Ni     -5.79857810     2.12306301    -3.87686894    -0.38278375     0.26340903    -1.07794942
Ni     -9.86269476     6.64478323    -7.92155362     1.35386215     0.11943838     0.71036260
Ni     -9.84959819     6.36786362    -4.07513494     0.54744756     0.87425013    -0.02943066
Ni     -1.91868415     2.26287970    -7.93257496    -0.65930847    -0.93065038    -0.00626939
Ni     -5.87406769     6.48650587    -4.02437827     0.38538473    -0.00024454     0.87739855
Ni     -5.87745581     8.73561009    -5.94264380    -0.70656131     0.36922737     0.19908790
Mo     -9.93407727     8.73628956   -10.31849073     1.31786233     0.78712285     0.22882709
Mo     -5.80123158     0.02601419    -6.37543381    -1.23972926    -0.94108517     1.76939853
O      -1.89565052     1.88540987    -1.97421453    -0.15821794     0.51893182     0.19513007
O      -2.01230995     1.85669470    -6.04701805     0.60951591     0.23325015     0.32971262
O      -5.83373466     6.83923361    -1.93962769    -0.72678280    -0.71387890    -0.65930309
O      -5.94854606     6.86261919    -5.86519520     0.90879217     0.66863295    -0.70506968
O      -5.75299856     1.99930182   -10.05825152    -1.12173662    -1.13617178     0.78057294
O      -5.84348363     1.88475059    -5.72962430    -0.83382643    -0.31801758    -0.51104869
O      -9.80316560     6.86426946    -9.80240415     0.08739973     0.22979324    -0.00782143
O      -9.62766313     6.81702018    -6.05439601    -1.24963091     0.03082503    -0.18181348
O      -3.90089800     2.24166108    -3.91267392     0.21521784     1.43246268     0.11791973
O      -3.94885380     2.32947299    -7.79551219     0.28543073     0.97820042    -0.96169347
O      -7.88823045     2.44934853    -3.91570497     0.76063210     0.09387905     0.11005706
O      -7.82881196     2.49570664    -8.03426993    -0.12753974    -0.39362866     0.11045534
O      -3.83142929     6.38085174    -3.79498427    -0.77785562    -0.24723092    -0.76479681
O      -3.99991627     6.32768510    -8.00768983    -0.07859556     0.04048151     0.99805463
O      -7.82940119     6.31291387    -3.97792309    -0.29649379     0.62344283     0.07949270
O      -7.90331126     6.38624852    -7.82592216     0.80599131     0.83657775    -0.96485278
O      -3.97266580     4.45211506    -1.83058968     0.18366815    -0.57037620    -0.64087768
O      -4.05333815     4.53932170    -5.86034850     0.71257206    -0.63267979    -1.53257229
O      -7.80553887     4.55215451    -9.92233366    -0.31855154    -0.92494262    -0.82892120
O      -7.94815420     4.34855862    -5.92217099    -0.09842824     0.02814035     0.98067646
O      -7.83215235     8.73861522    -2.00774372    -1.22339308     0.02760808    -0.29420382
O      -3.97849466     0.05071749    -5.95919909    -0.51565400    -0.23735925    -0.50044138
O     -11.57992015     8.66650957    -6.00618279     1.70707127     0.40344886    -0.33564067
O     -11.63615905     8.62451324   -10.08265214    -1.03203184     0.81652188    -0.02708135
O      -1.93406153     4.13377303    -4.05433538    -1.39500108     0.00127162     0.20199068
O      -9.85754616     4.56959331   -11.88833102     1.40480911    -0.42274430    -0.24400791
O      -5.80118207     4.55998015    -3.98753563    -0.76724798    -0.36431893     0.31365076
O      -5.94818064     4.28012513    -7.85110593     0.33509757    -0.38747846    -0.39947651
O      -1.74645438     0.28291756    -4.05097153    -0.64469255    -0.71918950     0.42996477
O      -5.81627718     8.54899519    -8.00457221    -0.08003115     1.66655724     0.37803790
O      -9.72221691     8.27853017    -4.09634495    -0.15976687    -0.20023380     0.87888396
O      -5.83738940     0.41495405    -8.14021825    -0.32066862     1.07004822    -0.53277812
