# total energy = -630.56858793 eV

CRYSTAL
PRIMVEC
        0.00285542     0.02004370    -7.95977623
       -7.82940539     0.00763210    -3.98158109
       -3.91729101     8.74642787     0.01461334
PRIMCOORD
56 1
Li     -4.00452799     2.46775948    -2.02760921     0.41805748    -0.46300985     0.31232105
Li     -3.89929206     2.02011646    -6.11705941     0.27130422     0.11820257     0.46296722
Li     -7.81871838     2.34576792    -9.88649774     0.11411649     0.00302640    -0.43789151
Li     -7.73532635     2.15184498    -6.00784928    -0.12207171     0.20194996     0.42547554
Li     -3.93087206     6.18686175    -1.91902408    -0.07210001     0.28448023    -0.00078700
Li     -3.99003287     6.51778100    -5.73962072     0.41438158     0.09640393    -0.29594838
Li     -7.97248212     6.67328449    -9.94346506     0.48315523    -0.54404488     0.23859564
Li     -7.68490312     6.39096341    -5.91897342    -0.81828593     0.05591391     0.17112508
Ti     -2.00958035     2.17227980    -3.95621552    -0.40835225     0.56075411    -0.12194180
Ti     -5.82506975     6.70713375    -7.89928290    -0.18686304     1.35452901    -1.02835209
Ti     -7.86446345     4.42596485    -7.82582239    -0.26024331    -0.27515998    -0.48814791
Ti     -7.91197806     4.37304408    -3.87781323     0.20259364    -0.66886350     1.61753662
Ti     -3.94003444     4.39254551    -7.68687595     0.65053912     0.29246259    -1.47714051
Ti     -3.97859703     4.44857774    -3.87312476     0.70588390    -0.66820576     0.53442207
Ti     -6.06985721     8.71375785    -2.07788156    -0.05960347    -0.34955172     1.26823579
Ni     -5.88526296     2.33896285    -7.96472829     1.07137699     0.34052324    -0.13062751
Ni     -5.86056686     2.34753607    -4.09352913     0.36260104    -0.55253404     1.26886226
Ni     -9.73436834     6.62330160    -7.78049120     0.00156973     0.25190807    -0.83549841
Ni     -9.74342461     6.50051988    -4.00241126    -0.37646508    -0.56007474    -0.03989162
Ni     -1.93945879     2.04648860    -7.91039267     0.24316294     0.12456669    -0.30186812
Ni     -5.93545872     6.58854271    -3.88758720     0.64711602    -0.05764004    -0.32589363
Ni     -5.97029090     8.69195331    -5.94523331     0.76216615     0.09258067     0.12837239
Mo     -5.97641557     0.05590089   -10.18828045    -1.29126450     0.33116015    -0.67369015
Mo     -9.81157110     8.67193341    -6.27132653     1.31833324     2.06372735    -0.50650226
O      -1.91572923     1.90864361    -2.02929890    -0.03188035    -0.33627866     0.32575717
O      -1.87173737     1.76693807    -5.79416232    -0.52704242    -0.25660934    -2.34771197
O      -5.90226803     6.75563490    -1.92612935     0.21803426     0.57598888    -0.07222541
O      -5.94765924     6.77841559    -5.99946511     1.12891406     0.88532519     0.84298462
O      -5.78689065     1.91218069    -9.90432771    -0.61587726     0.65302573    -1.75436458
O      -5.74417666     1.96856630    -5.84391057    -1.15886736    -0.28120939    -1.15962308
O      -9.85048693     6.96305893    -9.64473983     0.25815787    -0.14732173     0.25356599
O      -9.64698075     6.88090037    -5.94763690    -0.33810053    -2.44835772     0.39284667
O      -3.90341830     2.31084028    -4.12474547    -0.59477730     0.43970854     1.21226621
O      -3.87503860     2.55410667    -8.06159170     0.21047642    -1.63293248     0.77457579
O      -7.84532204     2.35446659    -4.00287522     0.44008446     0.89756641    -0.03667247
O      -7.73660243     2.45298474    -7.94741973    -0.88216396     0.03313380    -0.08663002
O      -3.73967338     6.36730344    -3.79287036    -0.49536591     0.27574147    -0.62965012
O      -3.91472257     6.36576286    -7.96325408    -0.14324859    -0.09107120     0.37449814
O      -7.84367622     6.32467240    -3.96812859    -0.05980724     0.64046134    -0.15541235
O      -7.81221075     6.44437465    -7.90710023    -0.19448844    -0.65473044    -0.16790642
O      -3.97898760     4.28984937    -2.11158526     0.61053715     0.30254895     0.19046619
O      -3.74535714     4.37424756    -5.97286863    -0.32200383     0.32724874     0.92568803
O      -7.87384792     4.42947703   -10.02414722     0.22320097    -0.37319351    -0.40417064
O      -7.67885644     4.37554590    -6.08150297    -0.25681632     0.17399607     0.51966682
O      -7.87390912     8.76858058    -9.83128876    -0.27123803    -0.29945332    -0.72254108
O      -3.99374194     0.06402599    -6.02534941    -0.01236526    -0.21155574    -0.26421979
O      -7.62367475     0.01844647    -5.94353536    -0.43026604     0.10747082    -0.05437988
O      -7.76612884     0.11659359   -10.08861056     0.43823650    -0.46482979     0.39931741
O      -2.03310764     4.03404412    -4.07057771     2.17092864     0.41587051     0.29623079
O      -9.75686654     4.62726483    -4.13294831    -0.81028579    -0.05881654    -0.04361568
O      -5.78948112     4.63414878    -4.08460490    -2.56691967     0.08845956    -0.32425014
O      -5.85006124     4.41520222    -8.15938854    -0.09525528    -0.16161769     0.99832079
O      -5.77923309     8.71973852    -3.89897058    -0.31592195     0.12264370    -0.44303197
O      -5.72554031     8.62885177    -8.00152771    -0.49898778    -1.34771932    -0.09406645
O      -9.78750767     8.34570746    -3.98687197     0.58236951     0.75793876     0.51940507
O      -5.93246080     0.50094132    -8.06488371     0.15531058    -0.03258344     0.86705075
