# total energy = -631.10753462 eV

CRYSTAL
PRIMVEC
        0.00279571     0.02951795    -7.98606283
       -7.83802570     0.01298533    -3.99532603
       -3.92160916     8.71933433     0.00634407
PRIMCOORD
56 1
Li     -4.06047332     2.13101984    -2.02264976     0.07603668    -0.11631385     0.28523081
Li     -3.83751050     2.24577737    -5.98246398    -0.74183413     0.32195647    -0.26098491
Li     -7.84815556     2.07491528   -10.10365003    -0.47021776     0.30971297     0.23078143
Li     -7.82417112     2.55278785    -5.94805517     0.11348224    -0.33388267     0.03500434
Li     -3.84853815     6.29675970    -1.95050353    -0.41300556     0.10454824    -0.05186966
Li     -3.86770015     6.44870314    -5.95426840    -0.02100539    -0.15799688     0.66042817
Li     -7.76980068     6.73450135    -9.89544978    -0.22553499     0.04185310    -0.07668844
Li     -7.90593140     6.34333794    -5.90659288    -0.16893543     0.15523070     0.12899187
Ti     -1.90366580     2.24428480    -4.05392785    -0.16303129    -0.40763852     0.23294195
Ti     -5.82453013     6.65753400    -7.82961351    -0.35239069     0.23825480    -1.06350118
Ti     -7.80557403     4.50806060    -7.80127133     0.02790576    -0.43476333     0.19825011
Ti     -7.87933377     4.48934717    -3.65787476     0.21978253    -0.60878706    -1.73284806
Ti     -3.86434728     4.32930750    -7.75999199    -0.16642527    -1.17996887     0.06535838
Ti     -4.02599436     4.31699898    -3.72297124    -0.26212842     0.88601151     1.23444970
Ti     -1.64186577     0.02792681    -1.95276845    -1.66861415    -1.29653799    -0.61745493
Ni     -5.96108574     2.05221776    -8.04412355     1.30581657    -0.11410888     0.32992827
Ni     -6.00430033     2.30373175    -4.10249680     1.01005502     0.90629044     0.52992830
Ni     -9.83021406     6.39321444    -7.95606183    -0.46131635    -0.66739098    -0.13187040
Ni     -9.86755070     6.52052080    -3.94544743     1.40889278     0.05548896     0.16171827
Ni     -1.96862512     2.19680358    -8.09744178    -0.12513965     0.44880334     0.35819600
Ni     -5.91422719     6.72153814    -4.13067259     0.30387540    -0.39416574     2.58619373
Ni     -1.99582699     0.13859185    -5.93195353     0.22910134    -0.41445664    -0.37232477
Mo     -9.90668816     8.61738553   -10.41218246     1.97076454     0.38556713     1.04421778
Mo     -5.72503967     0.03943753    -6.20408584    -0.05753403     0.56926128    -0.67033367
O      -1.82275737     1.88221414    -2.03920493    -1.24106307     1.65593484     0.17665894
O      -2.00602615     2.00726445    -6.02152895     0.66499003    -0.73342359     0.05868392
O      -5.87523076     6.81776016    -1.98819274     0.24388072     0.07604948    -0.43171225
O      -5.88950857     6.98445038    -5.88774570    -0.27440576     0.19819714    -1.22018604
O      -6.06147604     1.95411435    -9.96636488     0.94353617    -0.71396578     0.20643072
O      -5.84741003     1.99109328    -6.04998748    -0.51175403    -0.34694937    -1.07094021
O      -9.72803425     6.74461948   -10.01224015    -1.15052234    -0.44789486    -0.40876159
O      -9.85202857     6.77170720    -5.82478216     0.11294447     1.03974248     0.32749461
O      -3.89601153     2.45039170    -4.02678662     0.06199950    -0.79626293     0.27500884
O      -3.98694165     2.34138881    -8.06869654    -0.19867318     0.38705669     0.38698360
O      -7.89036295     2.44616436    -4.00292352    -0.47327481     0.38096210    -0.11261622
O      -7.81782920     2.45570946    -8.00674007    -0.53129327    -0.04120046    -0.05540349
O      -3.95432793     6.23557584    -4.02398346    -0.15058288     0.31810733     0.16539792
O      -3.89095797     6.32095123    -7.85945037    -0.40026917     0.88844795    -0.49628746
O      -7.86040667     6.41777957    -4.01743341     0.00781698    -0.30133304     0.38282561
O      -7.90815110     6.44234421    -7.84956418     0.47544167    -0.31092169    -0.56906684
O      -3.84247305     4.33155783    -1.89750624    -1.00197254     0.08140294    -1.80042747
O      -4.00517021     4.30595445    -5.99307079     0.55270118     0.03148006    -0.48405656
O      -7.94453440     4.42612495    -9.93319400     0.17266509     0.10346307     1.36329986
O      -7.94425715     4.41991235    -6.04828180     0.32904618    -0.08773853    -0.08581405
O      -8.10303207     8.68817690    -9.94082801    -1.43037332     0.76626995    -0.56559936
O      -3.95579222     0.08800955    -6.05290903    -0.24382914    -0.09269507    -0.13383240
O      -7.75222904     0.07468825    -6.02667689     1.90282746    -0.28667505     0.20540934
O      -3.86354097     8.59943817    -6.00694378     0.32674404     0.49371647    -0.11668106
O      -2.01206273     4.34738830    -3.96350914     0.18584276    -0.29292552    -0.54538223
O      -1.95729876     4.34189242    -0.09929040     0.04497899    -0.45716549     0.67064821
O      -5.94538109     4.14427699    -4.10160540    -0.38046057     0.43492036     0.57524670
O      -5.89423032     4.78060895    -7.90110460     0.14468688    -0.29093756    -0.41281360
O      -2.02643290     0.29590323    -3.97650555     0.28848538     0.71395845     0.11908750
O      -5.93850842     8.55922976    -8.04856759     0.43878570     0.65442845     0.63584217
O      -5.88455199     0.49604708    -4.17826778    -0.33157081    -0.97989442     0.51515333
O      -9.89161888     8.20297498    -7.89557774     0.04002726     0.27373014    -0.79593633
