# total energy = -630.78393042 eV

CRYSTAL
PRIMVEC
        0.00279571     0.02951795    -7.98606283
       -7.83802570     0.01298533    -3.99532603
       -3.92160916     8.71933433     0.00634407
PRIMCOORD
56 1
Li     -3.82612984     2.36153283    -1.84553830     0.20267755    -0.19017484    -0.33047229
Li     -3.83847629     2.14621624    -5.94580241    -1.02001913     0.07129765    -0.00778790
Li     -7.83766583     2.27276307    -9.97177507     0.11557844     0.31338553    -0.21735277
Li     -7.91853404     2.19829611    -5.81456435     0.84363910    -0.09513847    -0.05602037
Li     -3.83701661     6.25138098    -2.01372372    -0.04023386     0.30150152     0.14818830
Li     -3.75796267     6.43412207    -5.93873338    -0.31825047     0.05784379     0.16993622
Li     -7.76149001     6.23432953    -9.99921063    -0.85479806     0.16110376     0.21062513
Li     -7.80538473     6.50145331    -5.75922316    -0.29631302     0.16177728    -0.79522560
Ti     -1.88332434     2.11848445    -4.08695176    -0.54848474     1.02209971     1.32732926
Ti     -5.89812737     6.65405805    -7.98493248     0.34989255     0.54805582     0.33643282
Ti     -7.78378778     4.31829655    -7.68144866    -1.45346491     0.60816652     0.31309679
Ti     -7.84112349     4.37539697    -3.75853290    -0.45264566    -1.29038769     0.18668535
Ti     -3.85536600     4.29870462    -7.72161031     0.78143277     0.48809218    -0.26669096
Ti     -3.96885243     4.36496549    -3.82720593     0.27568751     0.60387898     0.74402214
Ti     -6.16073516     8.60982927    -2.13050829     0.56049739     2.12461155     0.00827496
Ni     -5.89589772     2.39105820    -7.99327728     0.02318142    -1.23340465     0.31124549
Ni     -5.83141236     2.19322401    -3.89989988    -0.11416218     0.05499295    -0.35844498
Ni     -9.70331013     6.73086945    -8.05944540    -1.82483817    -0.01533082     0.66491600
Ni     -9.88920557     6.57167207    -4.07041407     1.08644654    -0.48986040     0.22173284
Ni     -1.90738369     2.01101679    -7.86554212     0.14159507    -0.37519387    -0.98384351
Ni     -5.78000670     6.54131644    -3.96839012    -0.36437022    -0.14086208    -0.58520779
Ni     -6.03837736     8.62602784    -5.95532923     0.65357174    -0.08794735    -0.27669448
Mo     -6.00840403     0.26499683   -10.32013399     0.57284180    -0.51527148    -1.15363320
Mo     -5.93925270     0.04997935    -6.34352952    -0.75509025     0.38612191     0.07766903
O      -1.82394855     1.79350704    -1.92076498    -1.24255556     0.24418472    -0.36675820
O      -2.04307349     1.71078494    -5.98388186     0.34551530     0.93386313     0.07148807
O      -5.95572878     6.77175537    -2.05357148     0.42052638    -1.54719616     1.02134406
O      -5.77482866     6.86421960    -5.97133740    -0.67450317    -1.24544587    -0.41455687
O      -5.77533718     2.18201018    -9.99794945    -0.68743521    -0.75529887    -0.27487104
O      -5.78829200     1.93806471    -5.79861431    -0.60429082    -0.22735421    -0.06705076
O      -9.71926662     7.00761698   -10.04187893    -0.20080416    -0.20465462     1.17128192
O      -9.82352284     6.87824632    -6.02651863     0.32967770    -1.04678637    -0.62550873
O      -3.90817607     2.44663738    -3.91266233     0.30561009    -1.42344221    -0.60558594
O      -3.95639157     2.39372176    -7.89341763     0.75402167     0.36840081    -0.45678032
O      -7.75375193     2.32420706    -3.93462150    -0.55514675     0.51469824     0.08705956
O      -7.84461519     2.29853180    -7.98834292     0.40983668     0.73742343     0.16257109
O      -3.77900186     6.39626730    -3.90085607     0.15476881    -0.57437917    -1.19205543
O      -4.00664942     6.34110213    -8.07589945    -0.32296166    -0.32821451     0.59814877
O      -7.81195220     6.25466582    -3.96313717     0.15261428     1.50064364     0.20497593
O      -7.91855614     6.30096956    -7.98028304     1.75592885    -0.52859833     0.01018114
O      -3.80546197     4.31813977    -2.07068193     0.08085035     0.16478859     0.74975082
O      -3.92343940     4.29856468    -5.96677349     0.26546536     0.57460415     0.17373498
O      -7.82731600     4.23018369    -9.97761731    -0.35223372     0.32590666     0.26492468
O      -7.88525402     4.33668798    -5.91310712     0.06745213    -0.41131583    -0.81416782
O      -4.00709094     0.18390598    -2.03413373    -0.39915084    -0.18945055    -0.23214594
O      -8.00739155     8.64973817    -6.10914983     0.65693145     0.02772129     0.09066081
O      -7.73875137     0.05960907    -6.08408855     0.95657938    -0.31158042     0.03469539
O      -7.73186513     0.22259515   -10.03104936    -0.23834754    -0.19336130    -0.43128221
O      -1.90744365     4.01668366    -4.07485060     0.03598721    -0.80676864    -0.11807860
O      -9.79797611     4.76397235    -3.96253200    -0.79905830    -0.99750991     0.00959718
O      -5.88136231     4.55721835    -3.83249817     0.47443696     0.56255685    -0.99782851
O      -5.91054971     4.36675133    -7.92449922     0.97964204     0.20622055    -0.34756927
O      -5.78052635     8.61818366    -4.02048789    -0.51588983     1.03345215     0.20611775
O      -5.90700980     8.48386526    -8.10782812    -0.10331933    -0.68782715     0.63496007
O      -9.85675830     8.40399178    -4.13158012     0.11111546     0.45367707     1.34210303
O      -5.98157098     0.45812908    -8.16615780     0.76960819     0.70380853     0.43270854
