# total energy = -630.52821291 eV

CRYSTAL
PRIMVEC
        0.00285542     0.02004370    -7.95977623
       -7.82940539     0.00763210    -3.98158109
       -3.91729101     8.74642787     0.01461334
PRIMCOORD
56 1
Li     -3.91205228     2.28433911    -1.81593015    -0.25570645     0.11907917    -0.31982799
Li     -3.91616295     2.01387527    -6.07491840    -0.11654621    -0.04081311     0.80804086
Li     -7.78085048     2.30586712    -9.80081938    -0.11132255     0.05941844    -0.47581031
Li     -7.74092319     2.00657997    -5.91138711     0.03631929     0.22120891     0.10780223
Li     -4.05300590     6.58574517    -2.07222183     0.37626435    -0.28961294     0.17689265
Li     -4.00078790     6.48166484    -5.97360140     0.24946623    -0.24385980     0.30662525
Li     -7.84592865     6.41248830    -9.94910321    -0.61493370     0.59860572     0.07212952
Li     -7.76017345     6.43539321    -5.91337783    -0.27873615    -0.16645752     0.05311660
Ti     -1.95940558     2.30308248    -3.98351670    -0.25021153    -0.20326882     0.05531627
Ti     -5.91406207     6.72404996    -8.03125368     1.25978821     0.64976573     0.50911871
Ti     -7.76255451     4.40182385    -7.76839500    -0.26524126    -0.64593785     1.59829129
Ti     -7.81546790     4.39749903    -3.66869846    -0.39509289    -0.86791430    -0.83123097
Ti     -3.83211693     4.35842578    -7.68426316    -0.52000733    -0.18190443     0.46979225
Ti     -4.02820020     4.35510507    -3.76955823     0.68510629     0.64788632    -1.72254358
Ti     -2.19453717     0.01420849    -2.08492920    -1.36821354     0.34271740    -1.61766050
Ni     -5.74712613     2.35310107    -7.86995927    -0.25611038    -0.82036818     0.13178819
Ni     -5.85350489     2.26483646    -3.96076377    -0.09736514    -0.42751090     0.07499803
Ni     -9.90898615     6.76646088    -7.91217738     2.57614173    -1.06414075    -0.85113041
Ni     -9.79277829     6.34455126    -3.94716028    -0.17709440     1.65320022    -0.41002255
Ni     -1.85586093     2.11894341    -7.95201806    -0.40950840     0.08961168     0.43125427
Ni     -5.94311702     6.54604109    -4.06105021     0.50185562     0.13086937    -0.16614463
Ni     -5.85113570     8.74273535    -5.94025828    -0.65190858     1.05095424    -0.12341027
Mo     -6.04500336     0.12385191   -10.26395908     2.41185566    -0.84903204    -0.27051429
Mo     -9.70563013     8.51301021    -6.25834174     0.10554639     3.67218240     0.64425628
O      -2.12796532     1.96134036    -1.91959732     1.94956816     0.05596025    -0.13592508
O      -1.96790033     1.89297604    -6.05471301     0.68764078    -0.52058451     0.77121388
O      -6.00351710     6.80541783    -2.15814725     1.00378648     0.09362765     0.96249348
O      -5.92887282     6.82763324    -6.02930794     0.74045576     1.05146594     0.57975460
O      -5.76614279     2.00194321    -9.98141879    -1.03158982    -0.05950276    -0.24826998
O      -5.83511269     1.82767362    -5.78639740     0.19923241     0.62865775    -0.05216431
O      -9.76429328     6.90536311    -9.74732243    -0.86682501     0.75297959    -0.20126087
O      -9.77255391     6.70071366    -6.04685031     0.11145234    -1.38408759     0.47543402
O      -3.92938219     2.42354241    -3.86107652     0.13255029    -0.31564269    -0.72366645
O      -3.76931480     2.42823490    -7.86953444    -0.53038263     0.25966461    -0.54823511
O      -7.76504219     2.45919338    -3.88930591    -0.07596725    -0.28514375    -0.29081841
O      -7.73061216     2.44485368    -7.88929095    -0.79022552    -0.11054270    -0.24590955
O      -3.76911336     6.37258456    -4.01311323    -2.49162985     0.18598110    -0.04509236
O      -4.00927379     6.32409169    -7.97114862     0.17963230     0.14955027    -0.10325235
O      -7.86486927     6.29101223    -3.98756822    -0.35196941     0.79741071     0.04888111
O      -7.72974140     6.35779397    -7.96278500    -1.00433668     0.58641566    -0.00570983
O      -4.07304122     4.53732645    -2.07062796     0.11721917    -0.18152670     1.82897946
O      -4.04866978     4.44016112    -5.93459111     0.51069431     0.19419828    -0.56170118
O      -8.08290542     4.55604057    -9.86783801     0.84568914    -0.78136868    -0.37184634
O      -7.86206684     4.48074418    -5.98668270    -0.38462852    -0.17282251    -1.15146032
O      -7.94855653     8.72381143    -2.18889377     0.68507128     0.38931259     0.39123809
O      -3.96806969     0.05553160    -5.81498033    -0.21701247    -1.03153629    -0.47694859
O     -11.48235634     8.71900428    -5.98387395    -0.47087439    -0.24522701    -0.16150907
O      -7.78761399     0.13864679   -10.13047480    -1.20045203    -0.11146169     0.74186754
O      -2.00369208     4.16062368    -4.09890281     0.29038031    -0.44834152     0.65848640
O      -9.80044197     4.53702102    -4.06749285     0.44197571    -0.41684538     0.21413251
O      -5.94512826     4.59417302    -4.14435669     0.04675561    -0.15899311     0.79511857
O      -5.82654344     4.25027071    -7.99702726    -0.31678669     0.20474266    -0.14949931
O      -1.78663426     0.38748468    -3.92453664    -0.11712985    -1.22348687    -0.26025396
O      -5.85755752     8.58157692    -8.13843798    -0.04377039    -0.89475811     0.74746226
O      -9.86806614     8.20630608    -3.96811670     0.25264761     0.38755818    -0.16043586
O      -5.64184841     0.48483254    -7.98247353    -0.66738033    -0.03587389    -0.90091050
