# total energy = -631.12780020 eV

CRYSTAL
PRIMVEC
        0.00279571     0.02951795    -7.98606283
       -7.83802570     0.01298533    -3.99532603
       -3.92160916     8.71933433     0.00634407
PRIMCOORD
56 1
Li     -3.97026989     2.36349596    -1.83480486     0.12792843    -0.49822118    -0.26509136
Li     -3.92057610     2.43921473    -5.95635619    -0.30689079    -0.60511090     0.21249930
Li     -7.84415427     2.27570419    -9.90494705    -0.10878269     0.24685117    -0.47472454
Li     -7.90948010     2.41938879    -5.90130281     0.06227019    -0.08928667    -0.20111737
Li     -3.94399014     6.48862459    -1.92795712     0.51988151    -0.06260968    -0.41862252
Li     -3.94116323     6.32540803    -5.88698580     0.40510439    -0.00428650     0.27513785
Li     -7.92600210     6.50930727    -9.93077175     0.00969432    -0.02221621     0.02322366
Li     -7.82374641     6.82546285    -5.93880168     0.73617601    -0.63386004     0.16561035
Ti     -1.99789070     2.05195675    -4.05149487     0.81728109     1.88318979     0.08550479
Ti     -5.75095370     6.73797412    -7.99354481    -2.33161024    -0.05938492     0.89335107
Ti     -7.84284421     4.47794251    -7.78598691    -0.65587511    -0.64944642     0.28437379
Ti     -7.92467165     4.40614503    -3.73477721    -0.20275498     1.18687982    -0.00966495
Ti     -3.89846846     4.29004010    -7.77140131     1.27106123     0.97055488     0.55871903
Ti     -4.00333332     4.24679851    -3.74587229     0.09561936     1.74298803     0.22189599
Ti     -6.07215733     8.64219220    -2.08466741    -0.58484863     0.15912687     0.40702294
Ni     -5.89594143     2.41079212    -7.97376694     0.18513782    -0.43389162    -0.34733826
Ni     -6.01451643     2.31202533    -3.93906151     0.82744206    -0.22541128    -0.78054954
Ni     -9.80558712     6.57975237    -7.88304418     0.19486844     0.14763772    -0.17594732
Ni     -9.74940015     6.59968036    -4.07330101    -0.01320593    -0.10856359    -0.24733704
Ni     -2.05809170     2.00814402    -7.93096863     1.06023163     0.01086816     0.10707611
Ni     -5.78365696     6.51546767    -3.92896871    -0.81707504    -0.18104213    -0.45546401
Ni     -5.79036989     8.65514897    -6.03485748    -1.33245850     0.31513863     0.97431973
Mo     -5.99686483     0.07012068   -10.28869696    -1.40127716    -0.30214755     1.33339803
Mo     -5.80879063     0.07688402    -6.40836148    -0.90574454    -0.77394984    -0.70554425
O      -2.00704740     1.84368560    -1.89446166     0.13050843    -0.21096308    -0.29722717
O      -2.05978485     1.78556331    -5.99471597     0.91257789     0.27821534    -0.15143887
O      -5.96764927     6.65752325    -1.95351481     0.74552079     0.82329325    -0.36598458
O      -5.79151297     6.80358618    -5.90235048     0.02403185     0.10037125    -0.37507991
O      -5.89152246     1.98628254   -10.07070976    -0.29344333     0.42023409    -0.34540198
O      -5.89758835     1.92385555    -5.86279928    -0.00308072     0.45720440     0.42245088
O      -9.89414562     6.97350426    -9.74791459     0.31138063    -0.39692838     0.26486612
O      -9.64278037     6.78214621    -6.07945832    -0.86781303     0.93716422     0.79015360
O      -3.99026854     2.34481452    -3.90128982     0.34016899    -0.74572667    -0.61622955
O      -3.89191670     2.41627058    -7.87843403    -0.52575882    -0.56471357    -0.58960662
O      -7.90968027     2.49792740    -3.98450371    -0.28783987    -0.82086280     0.32312355
O      -7.80077443     2.48609047    -8.04348979    -0.77082185    -0.63562655     0.51010882
O      -3.81231863     6.28443501    -3.82245936    -0.31426017    -0.63060775    -0.68325132
O      -3.99911804     6.36384166    -8.01930641     1.86560011    -0.43520763     0.27462512
O      -7.81194037     6.40946163    -4.03338390     0.12737958    -0.29864480     0.44758655
O      -7.78864336     6.41759205    -7.91238084    -0.13730608    -0.16455616    -0.50068071
O      -3.97699786     4.23341358    -1.97881813     0.59577377     0.43870501    -0.00669625
O      -3.74358397     4.32302997    -5.98398116    -0.56361704     0.46830690     0.00172854
O      -7.76939487     4.46641124    -9.95791918    -0.45086582    -0.07445328    -0.08841728
O      -7.95495090     4.39824368    -6.04998410     0.44522752    -0.26497453     0.32316028
O      -7.95357427     8.66055301   -10.00680981     0.61020521     0.37881305    -0.12590727
O      -3.92999249     0.02231783    -6.21581676    -0.69889460    -0.22482619     0.32442437
O     -11.55041846     8.61168450    -6.14356073     0.57757164    -0.07158000     0.26270648
O      -3.94052667     8.71483245    -6.15826380     1.91868784     0.71735541     0.22585119
O      -1.92593571     4.01030980    -4.08980070    -0.98096536    -0.59289933     0.34585511
O      -9.80478890     4.76453331    -4.00763475    -0.02433597    -0.09452626    -0.23910757
O      -5.93839139     4.45797842    -3.99565984     0.79814614     0.01911836    -0.45613163
O      -5.78820679     4.23322121    -7.96567377    -1.20072573     1.42848779     0.21450093
O      -1.86841209     0.11398239    -3.93310705    -0.33543441     0.15997282    -0.19341935
O      -5.72216190     8.53846557    -8.03982219    -0.38796414     0.13273212    -1.24562387
O      -9.78368688     8.50229209    -4.05387339     0.33366795    -0.27456247    -1.24920025
O      -5.96525759     0.64247331    -8.20337378     0.40473303    -1.34986826     1.26561536
