# total energy = -630.78284820 eV

CRYSTAL
PRIMVEC
        0.00285542     0.02004370    -7.95977623
       -7.82940539     0.00763210    -3.98158109
       -3.91729101     8.74642787     0.01461334
PRIMCOORD
56 1
Li     -3.86179175     2.26621669    -2.04415975    -0.41337046     0.01633227     0.89578944
Li     -4.01103448     2.19109646    -5.87877044     0.58476688     0.09093678    -0.32905738
Li     -7.85438330     2.40753712    -9.92690196     0.12100494     0.16415262     0.39507505
Li     -7.86454997     1.98035366    -5.83150866     0.42551417     0.41457144    -0.22224161
Li     -3.85914848     6.62479286    -1.96397295     0.20359115     0.16985389    -0.10156998
Li     -3.93080126     6.62667844    -5.99074934     0.04764102    -0.48576656     0.47356514
Li     -7.89980358     6.29876256    -9.92951874    -0.07516226     0.47546979     0.26736046
Li     -7.73667984     6.69239950    -5.92128326    -0.14024319    -0.18520274    -0.10128970
Ti     -2.02079767     2.05812807    -3.93170224     1.11937926     1.93811036    -0.58097326
Ti     -5.76844001     6.38804323    -8.04271359    -0.24572289     0.56436813     0.47430087
Ti     -7.98107005     4.41850803    -7.70641720    -0.26165581    -1.20258515    -0.53958480
Ti     -7.85914931     4.36500303    -3.78669534     0.78665719    -0.36871477     0.37388957
Ti     -3.68066315     4.26639401    -7.68085844    -0.35600679     0.23178711    -0.25656143
Ti     -4.00929311     4.47534543    -3.66094938     1.13986122    -0.68880484    -0.27901345
Ti     -2.27377051     0.02287091    -1.90387689    -0.87189384     0.26817641     0.27751861
Ni     -5.84182161     2.32646681    -8.01448426    -0.98998345     0.89627300    -0.40799024
Ni     -5.83487413     2.17736557    -3.96244792    -0.72164622     0.43860601     1.45882702
Ni     -9.82437769     6.80885932    -7.93383228     0.43257025    -0.48155415    -0.28244763
Ni     -9.71750936     6.56256497    -4.09991579     0.28965489     0.20381147     0.47432574
Ni     -1.79807779     1.97272477    -7.81441973    -1.68366390    -0.20111437    -0.70688463
Ni     -5.90142740     6.48256869    -4.00833551     0.64581260     0.54877089    -0.00361149
Ni     -5.87316802     8.71774653    -5.88148247    -0.86012547    -0.44976339    -0.92833731
Mo     -6.12772533     0.07942087   -10.32600595     1.80169810     1.20363980     1.51414757
Mo     -5.83503483     0.07748625    -6.34585246     0.05147700     0.06065979    -0.18656899
O      -1.91539566     1.94070598    -1.87424965     0.04259276    -0.41663339     0.25230711
O      -1.92610322     1.84547985    -5.93281918    -0.35572605    -0.27596435    -0.82844303
O      -5.82444843     6.89104472    -2.11176082     0.03999012    -1.22146972     0.77469408
O      -5.84310118     6.82441416    -5.98317184    -0.23940651     0.48133298     0.51260508
O      -5.85386219     2.01583002   -10.05876463    -0.89752449    -0.41673586    -0.04683330
O      -5.85293208     1.98874767    -5.71203296    -0.18172403    -0.77089888    -2.30149308
O      -9.81871589     7.01531246    -9.77653575     0.32603943     0.01772652    -0.09513752
O      -9.66931223     6.84998566    -6.11198103    -0.72451978     0.23503872     0.54248249
O      -3.93503857     2.36276311    -3.96733292    -0.16473382     0.78012488     0.31970384
O      -3.98090544     2.37426204    -8.03173541     0.95246655     0.80557126     1.11751128
O      -7.82885000     2.28734934    -3.87468965     0.60832912     1.13411314    -0.42786323
O      -7.89512438     2.37675544    -7.99706914     1.40768814     0.85270849     0.63426242
O      -3.92272456     6.40590912    -4.06587610     0.05327127    -0.45800262     1.14336187
O      -3.79403626     6.38829057    -7.84269224    -1.06682248    -0.40173525    -1.50786977
O      -7.79522494     6.43287253    -3.83059050     0.18153313    -0.79734992    -1.12453858
O      -7.76844211     6.34615754    -7.96399786    -0.40403748    -0.03616630    -0.41616433
O      -3.86319882     4.37241299    -1.89476034    -0.06916857     0.63987289    -1.06087746
O      -3.87428818     4.43428659    -5.94418324     0.21025947    -0.50047278    -0.23104641
O      -7.79813338     4.42087582    -9.95767218    -0.20138891    -0.28722867    -0.21163254
O      -7.75271474     4.46959030    -5.99199273     0.37441915    -0.09602139     1.19592321
O      -4.06700981     0.24461150    -2.03531977     0.37496106    -1.06222016    -0.10157745
O      -3.97691442     0.05781762    -6.05489096    -0.47937555     0.01023887     0.04527736
O      -7.63190656     0.02808231    -6.01107396     0.59366135    -0.22820022    -0.11258185
O      -3.96560309     8.74063545    -6.13897612     0.01923744     0.30558475     0.28436040
O      -1.97999614     4.06430109    -3.92445277    -0.79648348     0.56112698    -0.07325347
O      -9.65350130     4.74857491    -4.08528985    -1.53119901    -0.58859801     0.11966612
O      -5.88301520     4.27945494    -3.89067274     0.19014501     0.32856520    -0.57908808
O      -5.77707210     4.46048272    -8.02986196    -0.15552060     0.06422918     0.33924748
O      -2.02996782     0.26992961    -3.92630435     0.24783570    -2.03830273     0.16885823
O      -5.98847063     8.39136809    -8.00188760     0.57111082     0.03058433    -0.14815434
O      -9.75363335     8.43383020    -4.07135201     0.15052631    -0.28300015    -0.73008726
O      -5.90252791     0.51738362    -8.17523825    -0.14568648    -0.23619981     0.98428121
