# total energy = -630.70380548 eV

CRYSTAL
PRIMVEC
        0.00285542     0.02004370    -7.95977623
       -7.82940539     0.00763210    -3.98158109
       -3.91729101     8.74642787     0.01461334
PRIMCOORD
56 1
Li     -3.90707582     2.17022962    -2.04363918     0.02591808     0.09177885     0.50935578
Li     -3.83814541     2.00886577    -5.94146672    -0.54741981    -0.29268420    -0.58646139
Li     -7.82447126     2.37463944    -9.92699166     0.19342250     0.07402430    -0.25681189
Li     -7.83845144     1.93217711    -5.99751631     0.30545250     0.24002990     0.43029390
Li     -3.99710004     6.55831986    -1.85637381     0.63565208     0.04605462    -0.44608421
Li     -4.13708283     6.34773642    -5.80861088     0.52586083     1.17686458    -0.17724216
Li     -7.93595111     6.31144587    -9.85976597    -0.07703112     0.39336657    -0.35489206
Li     -7.85448323     6.47035166    -5.95706257    -0.18933920     0.25126467     0.37466250
Ti     -1.97391481     2.27685377    -4.11007450     0.57848131    -1.05694157     0.09269020
Ti     -5.83615017     6.60200162    -7.96913060    -0.19388913     1.22439217    -0.20154823
Ti     -7.78387859     4.35508355    -7.62297023     0.22516780     0.26562880    -1.47287364
Ti     -7.64256028     4.36714862    -3.73199850    -2.20717496    -0.31819152    -1.07993109
Ti     -3.84117310     4.32791183    -7.55755099     0.41901568    -0.04759970    -1.93665116
Ti     -3.88467287     4.43659067    -3.60409765    -0.68150082     0.55788711    -1.40969619
Ti     -6.10817990     8.73767031    -2.02595336     0.19281322    -0.55301615    -0.57509938
Ni     -5.84258376     2.33162430    -7.91943929     0.26110221     0.49871117    -0.93516602
Ni     -5.82238067     2.29064454    -4.02553719    -1.33116396    -0.24854659    -0.65035698
Ni     -9.89637252     6.62000940    -7.89165858     0.98006750    -0.31555097    -0.18948051
Ni     -9.85014619     6.19766012    -4.05044389     0.16672599     0.47033247    -0.01011481
Ni     -1.92825061     2.19654139    -8.06009353     0.81372513     0.92126774     0.39035005
Ni     -5.90167434     6.76842320    -3.97681216    -0.25294050    -0.73562342     0.06172652
Ni     -5.90535567     8.71095408    -5.90235573     0.32961798     0.61263365    -0.75282743
Mo     -6.03039545     0.08890545   -10.20316664    -0.07239196    -1.13148430     0.32257006
Mo     -9.83443966     8.65754403    -6.35959969    -0.90326027    -0.63108256     1.08293736
O      -1.90787905     1.97890169    -2.09647675    -0.98674827    -1.11925457     0.74878446
O      -1.86629960     1.88415774    -6.03933959    -0.73845520    -0.79910541     0.47757469
O      -5.81666024     6.68232573    -2.06348409    -0.94684959     1.38123709     0.92641463
O      -5.99693188     6.89160195    -5.91741886     0.48051987    -0.25941580     0.54383542
O      -5.77699996     2.00944951    -9.84357385    -0.62183327     0.68386441    -1.20445181
O      -5.83097881     2.02741417    -6.01584813    -0.28473880    -0.50392742     0.04371831
O      -9.80609444     7.00139273    -9.79122291     0.21321778    -0.27954858     0.38201718
O      -9.87678976     6.68635518    -5.97943561     0.35423531     1.23871699    -0.24443859
O      -3.96801719     2.48723725    -4.11491167     1.37035240    -0.44374085     1.01922694
O      -3.78527157     2.42833502    -8.01194595    -0.80487289     0.12224654     0.83495531
O      -7.83193550     2.37822997    -4.00983238     0.51902272     0.50143555     0.03822720
O      -7.85473143     2.42352035    -7.93914803     0.22858784     0.23188638    -0.13163022
O      -3.90188760     6.37378078    -3.96255773    -0.56443208     0.43745663     0.56230416
O      -3.91603360     6.45202202    -7.86198623    -0.57781232    -1.22240204    -0.12278386
O      -8.01240805     6.28854080    -3.98535162     0.96893756     0.24125562     0.24162109
O      -7.79646006     6.32823400    -7.95537275    -0.33625030    -0.39469768     0.16287322
O      -3.78613143     4.56618442    -1.88343769    -0.35103703    -0.50575013     0.09904863
O      -3.65765369     4.66713849    -5.86214881    -0.40625060    -1.42111218    -0.08830538
O      -7.87990924     4.40733299    -9.96438662     0.10956223    -0.24500369     1.15645050
O      -7.69270087     4.53505589    -5.92586016    -0.46624110    -0.33754275     0.52636129
O      -7.92605468     8.67376223    -2.12738876     1.49881703     0.63376740     0.43521363
O      -8.05707000     8.69117244    -6.08590723     0.32176890     0.09502084     0.46972023
O     -11.66500699     8.71179333    -5.98479374     1.01621156     0.03661171     0.07352560
O     -11.67950327     8.67346507   -10.11914852    -0.76547723     0.66698307     0.37939501
O      -1.95401745     4.12746799    -4.04335403     0.33145899     0.51816011     0.77084260
O      -1.91347780     4.26785225    -0.14321553    -0.26376928    -0.02470815     0.51663643
O      -5.84311385     4.20984055    -3.97765730     2.23125011    -0.08430699    -0.00041225
O      -5.81633693     4.35081342    -7.97375312     0.11081727     0.09014448     0.60691605
O      -1.75140116     0.19199986    -3.94752259    -1.01378100     0.09292335    -0.08629531
O      -5.93111763     8.49628854    -7.92666972    -0.16085184    -0.40055333    -0.93108773
O      -5.85496065     0.35132341    -4.00062160     0.15855475     0.37211537    -0.98132990
O      -5.96882616     0.53786555    -8.11574640     0.25123739    -0.70570167     0.54433562
