# total energy = -631.22893596 eV

CRYSTAL
PRIMVEC
        0.00279571     0.02951795    -7.98606283
       -7.83802570     0.01298533    -3.99532603
       -3.92160916     8.71933433     0.00634407
PRIMCOORD
56 1
Li     -3.87254558     2.41552953    -1.93485066    -0.38265764    -0.00961170    -0.07813840
Li     -4.03070046     2.17287967    -6.04915380     0.28559432    -0.08829870    -0.19937595
Li     -7.74857877     2.23942302    -9.94598079    -0.23386667     0.07998669    -0.15078571
Li     -7.76047331     2.51579157    -5.84643496     0.10941579    -0.65814602    -0.33933229
Li     -3.86286149     6.36372749    -1.87678770    -0.19931686     0.20493851    -0.50990789
Li     -4.04313260     6.44205967    -5.81386430     0.42831861    -0.08155294    -0.85730329
Li     -7.82319494     6.52295405    -9.81901575     0.00587504    -0.23564276    -0.54107300
Li     -7.74676206     6.32161885    -5.86143659    -0.15082217     0.52673159    -0.28459817
Ti     -2.04713409     2.37084306    -4.08841550     1.10827914    -0.62887349    -1.33004697
Ti     -5.77038669     6.89137093    -7.97123035    -0.81546312    -1.87103124     0.03528639
Ti     -7.76166524     4.38855764    -7.72997119     0.95084646     0.60874237    -0.81593392
Ti     -7.91451130     4.29162373    -3.76882944     1.44282651     0.66929409     1.75415573
Ti     -3.94356220     4.31847623    -7.81805945     0.10129072    -0.46463494     0.99749784
Ti     -3.92462747     4.48980684    -3.85664197    -2.05427143    -0.06372752     0.93287581
Ti     -2.14134098     0.11125541    -2.25221097     0.25421320    -2.01173993     0.50675284
Ni     -5.89993366     2.24118869    -8.02589659     0.81743252     2.18940086    -0.23122190
Ni     -5.81892554     2.20423334    -3.99716576    -0.59090732     1.42707480    -0.63171806
Ni     -9.80015954     6.35922633    -7.93536640     0.21711093     0.75111735     0.95018033
Ni     -9.76933297     6.42640415    -4.03520466     0.04310753    -0.30040089     0.73995381
Ni     -1.90208590     2.28353057    -8.01960227    -0.87388879    -0.39901815     0.70017235
Ni     -5.90003591     6.65790686    -3.92940801    -0.65973891    -0.35804843    -0.30769168
Ni     -6.01080671     8.69598760    -5.94365096     0.00606900     0.81951729    -0.50447346
Mo     -9.86247458     8.68893810   -10.17904123     0.04114542    -0.30728490     0.34716722
Mo     -9.83825522     8.63885329    -6.26861067     0.12358599    -0.31086705    -0.62141537
O      -1.88258253     1.95050904    -2.09870564    -0.41035744     0.69042371     0.09534906
O      -2.07633601     1.82424195    -6.01986233     0.53167165     0.24904872     0.62863038
O      -5.88390844     6.83205150    -1.98232792     0.22217582     0.34086209     0.06985500
O      -5.89383213     6.88013124    -5.93733920    -0.01344557    -0.31413447     0.46578931
O      -5.77328622     2.01265626    -9.98905409    -0.18934264    -0.11395218    -0.16493416
O      -5.88701972     1.91918986    -6.04251595    -0.51494873     0.79293243     0.84546125
O      -9.74865115     6.81242127    -9.80577512    -0.47202597     0.73835205    -0.71307849
O      -9.74235708     6.71815596    -5.94649654    -0.44352124    -0.17952492    -0.18991279
O      -3.94705721     2.53314563    -4.13528812     0.75718754    -1.22694626     0.80872897
O      -3.87575584     2.33558875    -8.03504481    -0.00210873     1.04869662     0.26911548
O      -7.85118043     2.29377186    -3.92278878     0.53722313     0.78653504    -0.47559693
O      -7.82455174     2.49114778    -8.00088071    -0.76158760    -0.87060748     0.15641928
O      -4.01840951     6.37785228    -4.01543987     0.91017596     0.34618875     0.77133606
O      -3.94428514     6.33700419    -7.93085100     0.61138447     0.34762274    -0.30168109
O      -7.85406416     6.32915767    -3.99545151    -0.07782113    -0.45056468     0.72906922
O      -7.68721997     6.31471079    -7.92343094    -0.39536524     0.22732332    -0.26352521
O      -3.83250899     4.40246763    -2.05882585     0.07330397     0.10773357    -0.32721808
O      -3.91925791     4.46470342    -6.04704486     0.22576775    -0.17228243    -0.21852138
O      -8.06061341     4.28409190    -9.96806040     0.79310992     0.60355772    -1.04883966
O      -7.83494701     4.46737960    -5.97060647    -0.37829500    -0.90653183     0.12607019
O      -7.89042311     8.71113613    -9.90209246     0.50245182     0.27909260    -0.19941310
O      -8.03806033     8.71990844    -6.11492673     0.85181965    -0.29297622     0.42014167
O     -11.64110630     8.63727426    -6.01954423    -0.54158167    -0.07523771     0.12718748
O      -7.66042885     0.14836331    -9.81483015     0.14628318    -0.63051240    -0.96014950
O      -1.95318807     4.26498128    -4.11877471    -0.03986230    -0.43320648     0.40524626
O      -1.97667619     4.21602884    -0.06496451    -0.08939920     0.16552973    -0.53744788
O      -5.86892499     4.20008058    -4.06161192    -0.45834657    -0.37538668     0.28814373
O      -5.84346776     4.24569990    -8.05639228    -0.55253303    -0.41165673    -0.11035046
O      -2.04985410     0.23146110    -4.07609004    -0.17596696     0.46487471     0.27513890
O      -5.78673200     8.62712663    -7.89608174    -0.07430083     1.87858841    -0.04575939
O      -5.73602357     0.31408191    -3.99869945    -0.70274544    -0.13080458     0.17988585
O      -5.91139984     0.48712628    -8.03994126     0.02753318    -1.25369449    -0.69727232
