# total energy = -630.33815431 eV

CRYSTAL
PRIMVEC
        0.00279571     0.02951795    -7.98606283
       -7.83802570     0.01298533    -3.99532603
       -3.92160916     8.71933433     0.00634407
PRIMCOORD
56 1
Li     -3.73988675     2.19592783    -1.87716670    -1.14547139     0.50422002     0.12603741
Li     -3.95032738     2.18898276    -5.83470841     0.18967913     0.37506988    -0.40803199
Li     -7.64564041     2.50090461   -10.01756406    -0.76174396    -0.28632217    -0.02661467
Li     -7.83076820     2.40537707    -5.95706439     0.11769485    -0.23851531    -0.02875398
Li     -3.89185341     6.65547382    -1.84776274     0.01850194    -0.06342059    -0.97077344
Li     -3.92841489     6.43636497    -6.13238419     0.16076062    -0.08433655     1.21000959
Li     -7.84421642     6.74042885   -10.15874729     0.01582693    -0.54336663     1.15831938
Li     -7.98211949     6.44564181    -5.97896673     0.32071294     0.38726682     0.32326894
Ti     -1.91181917     1.85723026    -3.97305755    -0.70234028     2.15540254    -0.72953444
Ti     -5.88705335     6.43658154    -7.85853893    -0.22254838     0.06671164    -2.49789602
Ti     -7.91212047     4.41055764    -7.75239991    -0.32237664     1.21159018    -1.07119848
Ti     -7.83398221     4.35741914    -3.87327860     0.79291927     0.25214985     0.97759579
Ti     -3.67832365     4.35200873    -7.83112176    -1.87055688    -0.48574961    -0.46045049
Ti     -3.93034793     4.42392249    -3.69823764    -0.56366429     0.43503002    -0.70721512
Ti     -2.27351462     0.04178698    -1.78914869     2.24628960    -1.67971741    -0.05738997
Ni     -5.93086696     2.32579783    -7.87894054     0.95436959    -0.30887001    -0.20843236
Ni     -5.87435054     2.23302200    -3.98631871     0.37606158     0.94590332    -0.71984372
Ni     -9.74168874     6.42383242    -8.11674876    -1.70761741     0.96990666     0.38547987
Ni     -9.76462631     6.70145389    -4.03222439     0.02255112     0.23996607    -0.39604439
Ni     -1.95810387     2.04750163    -7.90285047     0.62205143    -0.02640645     0.09736023
Ni     -5.93861811     6.72356613    -4.05205413     0.87223138    -0.61656444     0.32405922
Ni     -5.94008552     8.71155782    -5.98024581    -0.31299788     0.68430338    -0.39874942
Mo     -9.98739678     8.75285117   -10.21640790    -0.90622366    -0.37610245    -0.23254877
Mo     -5.79011831     0.14658174    -6.40423765     0.85057009    -0.89586636    -0.78554354
O      -1.87418416     1.86990862    -1.93392550     0.07667965     0.81213646    -1.07213252
O      -1.97729128     1.80050929    -5.91216166    -0.06148133     0.89983502    -0.12840740
O      -5.92904033     6.86890704    -1.92055838     0.79723399     0.13710087    -0.30291568
O      -6.02184679     6.91659803    -6.05143227     0.61225377    -0.60743644     1.19336165
O      -5.90962208     1.82377512    -9.70398433     0.39056263     0.43983188     0.08150999
O      -5.86400384     2.01450481    -6.04265832     0.19957139     0.80573791     0.66642071
O      -9.77336511     6.79080147   -10.15752705    -0.40782268     0.48137250     0.29407862
O      -9.77249150     6.83158387    -5.89723887    -0.22521135     0.45918135     0.20242067
O      -3.89628963     2.36852985    -3.80382709     1.06075536     0.24195018    -0.81541653
O      -4.07228254     2.35857950    -7.88145782     0.45715186     0.73789447    -0.55108489
O      -7.74568577     2.31621403    -4.14500903    -0.07039757     0.86967961     1.41495456
O      -7.86553814     2.56167640    -8.10327869    -0.19599605    -1.43739967     1.21463118
O      -3.94661242     6.36209709    -4.07237750    -0.08252465    -0.53098927     0.19786473
O      -3.95083901     6.38588873    -8.00985244     0.59204269     0.29475062     0.34094448
O      -7.77373449     6.45056923    -3.91365776    -0.76321879    -1.05799474    -1.43719587
O      -7.89801666     6.38375897    -8.08112128     1.05847431    -0.65193515     0.38491033
O      -3.88355767     4.46994695    -1.95540221    -0.45824926    -0.16672720     0.52667243
O      -4.04259903     4.48824901    -6.14250449     0.44838302    -0.13112268     1.23917023
O      -7.95205327     4.33347740   -10.09200111     0.49023881     0.45137948    -0.47461650
O      -7.83133282     4.50082161    -6.00177066    -0.25743852    -0.31773677     0.23102506
O      -7.89997573     8.68915673    -2.05276051    -1.94447102     0.49971310    -0.13786180
O      -7.89509774     8.73023478    -6.11712488     1.21332363     0.45204013     0.71182460
O      -7.48748395     0.08872904    -6.28762792    -3.09924560    -0.38522857     0.99218827
O      -3.91741886     8.71721715    -5.97734021     0.60642088    -0.43128459    -0.31099060
O      -9.84489482     4.49990391    -8.03951490     0.46373401     0.07286420    -0.09885467
O      -1.92555143     3.96782270    -8.05852254     1.42921158    -0.64104513    -0.01339010
O      -5.84567163     4.16539742    -4.11906344    -0.47498525    -0.31065292     0.61175080
O      -5.90986081     4.61795464    -8.00579493    -0.49974557    -0.08086214    -0.19008560
O      -1.86428382     0.11299710    -3.95168305    -0.25897606    -1.28371469     0.78527082
O      -1.85537649     0.03976432    -7.96723365    -0.36652086    -0.03215895     0.15969631
O      -5.88259571     0.38189226    -4.03348681     0.08038419    -0.75146916     0.17904359
O      -9.68301698     8.32532193    -8.16278008     0.09663902    -1.17164223    -0.81622455
