# total energy = -630.92475850 eV

CRYSTAL
PRIMVEC
        0.00285542     0.02004370    -7.95977623
       -7.82940539     0.00763210    -3.98158109
       -3.91729101     8.74642787     0.01461334
PRIMCOORD
56 1
Li     -4.00884163     2.15303694    -1.93738316     0.28742904     0.09586873    -0.11700022
Li     -4.00512253     2.31617881    -6.02144727     0.00903906    -0.20610013     0.19305285
Li     -7.79277303     2.49398674    -9.89255728    -0.10055292    -0.40999492    -0.46469421
Li     -7.87828008     2.46414023    -5.81830790     0.25791123    -0.12943359    -0.70921645
Li     -3.81954518     6.47919753    -1.88838764    -0.24344423    -0.00795997    -0.27579000
Li     -3.92169977     6.32417095    -5.98389838    -0.31000450     0.08058512     1.01576784
Li     -7.92457654     6.60521943    -9.80027560     0.17157723    -0.14527074    -0.27316557
Li     -7.90344664     6.39500447    -5.75450060     0.30733032     0.31455713    -0.39544942
Ti     -1.92621588     2.29181039    -4.03533781     0.10082369    -0.76332048    -0.29722411
Ti     -5.83520303     6.63707411    -7.90931696    -0.21218755    -0.01306901     0.09375218
Ti     -7.80647244     4.49256835    -7.76331100     1.07654597     0.30985919     0.19419809
Ti     -7.85553741     4.48122219    -3.74431975     0.67827233    -0.49445303     1.16761414
Ti     -3.71755328     4.31227710    -7.73394972    -0.82555931     0.14729846     0.40449735
Ti     -3.91428880     4.31420917    -3.78495628    -1.29077324     1.28961807     0.50049930
Ti     -6.02359512     8.70376725    -2.19167459    -0.30050073    -0.33532923     0.72333443
Ni     -5.87220882     2.35455766    -8.12607976     0.62706951     0.72499851     1.21714214
Ni     -5.92165076     2.10017643    -4.06339840     0.40609205     0.29786279     0.51948180
Ni     -9.86333232     6.59193969    -7.82874695     0.77151024    -0.00942419     0.85563999
Ni     -9.87254422     6.67082008    -3.80409047     1.13742209    -0.12501781    -0.94986958
Ni     -1.86985320     2.00976307    -7.92738961    -0.02638982     0.10822238    -0.08170038
Ni     -5.90560923     6.57154208    -3.95886900     1.55072169    -0.42730744     0.30324461
Ni     -5.93917628     8.63868804    -5.94442232     0.68542560     0.70826093    -0.20833506
Mo     -9.90836232     8.72998868   -10.15294464    -2.42820805     0.29108908     2.32483572
Mo     -9.69632399     8.70553042    -6.37710160    -1.43326942    -0.08497458     0.20745821
O      -2.00250092     1.87833024    -1.97719641     0.59777929     0.40869206     0.16490737
O      -1.96572984     1.82922101    -6.02893080     0.18581918    -0.41973108     0.15215706
O      -5.83059617     6.78995254    -2.02857527    -0.07371355     0.27569356     0.07902272
O      -5.86325764     6.73491197    -5.94495335    -0.41226133     1.06795626     0.62952496
O      -5.94832881     1.96362156   -10.11409143     0.86874428     0.44355536    -0.19465889
O      -5.95569778     1.88206197    -5.88219944     1.02878022     0.18318205    -0.67926173
O      -9.93220271     6.92846451    -9.61170836     1.20427495    -0.52257710    -0.97042524
O      -9.72860372     6.78333829    -5.94030773    -0.40548275     0.34419438    -0.15562067
O      -3.94873196     2.32287111    -4.07938478     0.58491932     0.97247649     0.81819748
O      -3.80716375     2.42006133    -7.95583063    -0.39212250    -0.03709889    -0.25124216
O      -7.74299661     2.47400468    -3.98894711    -1.42960226     0.21319229     0.40930503
O      -7.79001860     2.55138131    -7.91206689    -0.63597088    -1.10949729    -0.40152045
O      -3.85558770     6.37278184    -3.99732442    -0.90470602    -1.03210686     0.62064085
O      -3.95113375     6.36026388    -7.84916794     0.44515872     0.27550166    -0.61423179
O      -7.74736186     6.46415529    -3.82665069    -1.35129503    -0.37620726    -0.29163516
O      -7.83396691     6.42628733    -7.87512304    -0.46217115    -0.07256572    -0.54916984
O      -4.03483047     4.40028209    -1.99217063     0.36564624    -0.34513621    -0.74817810
O      -3.96017617     4.36823896    -5.94832972     0.19938952    -0.20494341    -0.54944237
O      -7.94392431     4.39042287    -9.89047789     0.09454688     0.32890577    -0.90505443
O      -7.99653119     4.49744440    -6.01449799    -0.28360427    -0.59773522     0.93178771
O      -7.88857469     8.66294292    -2.09232863     0.02790818     0.30082187     0.17906134
O      -7.90349590     8.66903179    -6.02044713     0.19477136     0.19831944     0.13384654
O     -11.47666044     8.66882256    -6.00782740    -0.51870662    -0.28494687    -0.32129271
O      -7.80484989     0.04718726    -9.89028579     0.78750211    -0.24014235    -0.78847756
O      -1.95932815     4.22236405    -4.12436079    -1.05747354    -1.01608022     0.60068304
O      -9.76473674     4.79632691    -3.95226026    -0.14264536     0.24346177    -0.14642219
O      -5.97329752     4.60522840    -4.02267594     1.03396006    -0.32591308    -0.13847071
O      -5.82085097     4.46479243    -7.82861243    -0.76135934    -0.61179946    -0.93903559
O      -1.89574992     0.32782551    -4.00645539    -0.14312972    -0.92622398    -0.15847830
O      -5.92692591     8.44447744    -7.97604436     0.39592687     0.51430136    -0.32166912
O      -9.82909589     8.66393255    -3.93734740     0.11101130    -0.38888060    -2.52550599
O      -5.78451927     0.52447286    -8.18882803     0.07611554     0.50977971     1.02977825
