# total energy = -630.84065229 eV

CRYSTAL
PRIMVEC
        0.00285542     0.02004370    -7.95977623
       -7.82940539     0.00763210    -3.98158109
       -3.91729101     8.74642787     0.01461334
PRIMCOORD
56 1
Li     -3.82697674     1.97319181    -1.96434607    -0.63095569     0.17700748     0.33281694
Li     -4.00606428     2.15022463    -6.13033167    -0.21468010    -0.19509593     0.78475431
Li     -7.85364411     1.96310588   -10.00013247     0.31901961     0.40940685    -0.01182153
Li     -7.81656962     2.08184857    -5.92652808    -0.28870866     0.41337128     0.21291974
Li     -3.97227784     6.16965272    -1.86005638     0.64839610     0.75249634    -0.00409264
Li     -3.98031420     6.53285467    -5.86481050     0.33371816    -0.21458272     0.40263182
Li     -7.81214186     6.47611476    -9.86210766     0.34252048     0.09982361    -0.46233508
Li     -7.78629097     6.37724404    -5.81282867    -0.24507794     0.28777843    -0.11761479
Ti     -2.02964477     2.35406591    -4.17007211     0.36809490     0.26727852     0.48261282
Ti     -5.82298711     6.85889014    -7.85196359    -0.83846008    -1.51792343    -1.24143415
Ti     -7.83434750     4.42933258    -7.75798951     0.91210113    -0.28441442     1.19864533
Ti     -7.94843388     4.31570933    -3.69813991     2.15582217     0.88370764     0.19640798
Ti     -3.89140226     4.39046009    -7.70710355    -0.83888534    -0.64966105     0.45210567
Ti     -4.05294186     4.44083374    -3.74213032    -0.81685329    -0.35259803    -0.23805889
Ti     -5.70968274     8.71582646    -2.27273121    -1.03348171    -0.95407953     1.25051663
Ni     -5.95091082     2.35823786    -8.01917304     1.83168892    -0.14756444    -0.43651382
Ni     -5.87898474     2.25316616    -4.03905271    -0.45506158    -1.10911833     0.85012721
Ni     -9.70655896     6.43798128    -7.90104960    -0.95302181     0.24820789     0.44844137
Ni     -9.82177836     6.48511201    -3.87668108     1.03814536    -0.03084746    -0.05160425
Ni     -2.01774902     2.23569220    -7.95716498     0.75131426    -0.11669611    -0.11603860
Ni     -5.84917314     6.63890953    -3.88825124    -0.61134979    -0.64965922    -0.30034153
Ni     -5.86450190     8.72002094    -5.96624902    -0.67440725     0.91569445     0.53657920
Mo     -9.80795560     8.67125721   -10.14536861     1.51502329    -0.47074396     0.46598238
Mo     -9.81191568     8.68255013    -6.39505769     1.76902176     0.71993020     1.83682983
O      -1.92371914     1.80277250    -1.90433959    -0.33589846     0.80204508    -0.96549376
O      -2.02328974     1.87467699    -6.00568573     0.55231663    -0.37224987    -0.20152462
O      -5.72726171     6.67059885    -1.95242980    -0.83120850     1.73655644    -0.09488319
O      -5.92182740     6.89138143    -5.93366264     0.44959309    -0.28591519     1.30429345
O      -5.88719899     1.92723985   -10.01133540     0.58142811     1.24277218    -0.31981016
O      -5.97576004     1.91306006    -5.86287238     0.60924226     0.49927772    -1.63657111
O      -9.72185710     6.74767511    -9.80948684    -0.75312368     0.57092341    -0.27693898
O      -9.83514289     6.93887465    -5.86005326    -0.10562295    -1.96335598    -0.19806886
O      -3.90507291     2.47237709    -4.13972431     0.24265575    -0.76981471     0.81142104
O      -3.84824679     2.41442860    -7.92759915    -1.36494183     0.59469128    -0.55252780
O      -7.96924173     2.38700161    -3.95556932     0.73225598    -0.11095589     0.05219598
O      -7.79253923     2.47034982    -8.00479385    -1.66541114    -0.40758761     0.04674677
O      -3.89386400     6.32535286    -3.88092154     0.35518322     0.67604557    -0.42365585
O      -3.93142142     6.42918553    -7.78314550     0.08400825    -0.24297880    -0.82488408
O      -7.80964057     6.43323969    -3.95734417    -0.38719219    -0.99776370     0.73633308
O      -7.76890804     6.36681594    -7.96472037     0.24749484     0.42988896     0.55652426
O      -3.80449279     4.35631693    -1.99793056     0.01395267    -0.28684575     0.22176253
O      -3.96437852     4.45442651    -5.95671977     0.34384370    -0.07825457     0.00922644
O      -7.82463633     4.45424870    -9.90125262    -0.15989110     0.19303032    -0.21634196
O      -7.95928889     4.50888862    -5.96415528     0.29139097    -0.29340181    -1.06159922
O      -7.85878858     8.69456083    -9.88072832    -0.37260060    -0.03127525    -0.49767060
O      -4.13432794     0.05716280    -6.05709921    -0.50597467     0.03787241    -0.16156638
O      -7.73148683     0.06350961    -5.95123923    -0.83527712    -0.30710130    -0.43273710
O      -7.70042296     0.06608925    -9.93841550     0.04627914    -1.08994180     0.00309691
O      -1.97328707     4.26554673    -4.05077873    -0.13361061    -1.02493348    -0.24010533
O      -1.94122193     4.31427852    -7.89630748    -1.63401628     0.42336479    -0.54444539
O      -5.94479515     4.11737518    -4.03066710     0.36090382     0.26510161     0.09956919
O      -5.83637876     4.32790335    -8.01827764    -0.39470850    -0.50669336     0.18054055
O      -1.94625926     0.24113620    -4.06467315     0.12717822     0.46873698    -0.65802516
O      -5.96304635     8.61624846    -7.85779792     0.48049089     0.87040922    -0.10356294
O      -5.82912690     0.28989472    -3.93113645    -0.10052101     0.43245593    -1.16914660
O      -5.86746181     0.46868065    -8.14019628    -0.38541979     0.65829990     0.10354634
