# total energy = -630.48347612 eV

CRYSTAL
PRIMVEC
        0.00279571     0.02951795    -7.98606283
       -7.83802570     0.01298533    -3.99532603
       -3.92160916     8.71933433     0.00634407
PRIMCOORD
56 1
Li     -3.90160219     2.22567405    -1.87788064    -0.29482262     0.07324598    -0.37713400
Li     -3.83103211     1.98569875    -6.14517045    -0.67700597     0.30161128     0.53732171
Li     -7.86471532     2.43120167    -9.85432862     0.55452642    -0.44783165    -0.47116935
Li     -7.88939960     2.41270221    -5.95863194     0.26170085     0.16268825     0.28311445
Li     -3.91848303     6.54700906    -2.04783359     0.66835394    -0.35214233     0.20832708
Li     -3.86698042     6.31001974    -5.96589039     0.03884803     0.31606774     0.22246543
Li     -7.80884199     6.47051034    -9.84336567     0.14815221    -0.00921880    -0.86712783
Li     -7.70815708     6.40228972    -5.94515962    -1.18251063    -0.03531731     0.26307639
Ti     -1.95660109     2.46835722    -4.04230540    -0.88271724    -0.98084661     0.16576507
Ti     -5.73830038     6.79646877    -7.93251107     0.13748360    -0.59342501    -0.44352846
Ti     -7.68312801     4.43469031    -7.82978381     0.83420600     0.89643582     1.52298293
Ti     -7.87725466     4.31637079    -3.60521890    -0.76248887     1.58231543    -1.49266967
Ti     -3.95177949     4.26393445    -7.84637588     0.39427396     0.37280525     1.37296896
Ti     -4.11390513     4.37373086    -3.78475092    -0.04991273     0.48518857     0.67653087
Ti     -2.24262071     0.02983499    -2.35336216    -0.24353293    -0.75540423     0.26469843
Ni     -5.93156585     2.15654477    -7.95618130    -0.18885870    -0.34627515     0.01976965
Ni     -5.94053978     2.21994954    -4.00069360     0.91821867     1.23094696     0.16719448
Ni     -9.70232041     6.28785623    -8.01050919    -0.89093331     1.39864927     0.17715244
Ni     -9.78986447     6.86069221    -3.91187845     0.48657607    -1.50414686    -0.40634173
Ni     -1.83542193     2.02199567    -7.92873184    -1.00265340     0.89042018    -0.60200860
Ni     -5.87959837     6.58497660    -4.09202357    -0.51163349    -0.33232577     0.74380474
Ni     -2.03879631     0.10059008    -5.97794511     0.25315131    -2.86429515    -0.32673561
Mo     -9.93583690     8.70042000   -10.18210012    -0.19970514    -0.30319987    -0.24975506
Mo     -5.89442297     0.04071370    -6.33571465     2.59389523    -0.25886372     1.23963438
O      -1.94775948     1.90873944    -2.09826597     0.40269852    -0.02504966     0.17949123
O      -1.91574056     1.84811573    -5.95860064    -0.24056426     1.80264783     0.13473213
O      -5.75705867     6.88924836    -2.07504729    -1.16164093     0.61508360    -0.05456162
O      -5.92647202     6.85517681    -6.03634949     0.35107854     1.05055133     0.98649285
O      -5.88631329     2.00182979    -9.80303336    -0.54794086    -1.11159198    -0.44599627
O      -5.89970652     1.98392388    -6.07626568    -0.28733846    -0.40502902     0.32029717
O      -9.70427426     6.72125714   -10.02096949    -0.79166126     1.08825617    -0.44917365
O      -9.75339231     6.72497165    -5.74017741     0.33791880     1.40510252    -0.80626893
O      -3.89602365     2.41011429    -3.91847819     0.25975237     0.54965583    -0.69962217
O      -4.10772747     2.31235775    -8.01071468     0.85494674     0.80773730     0.47626621
O      -7.83321133     2.42355859    -3.87648854     0.88557988    -1.44882603    -0.55704718
O      -7.87449003     2.46723020    -7.99873011     0.35586313    -0.65689833     0.42309283
O      -3.98398637     6.31430185    -4.01024397     0.78362188    -0.26532694    -0.19530925
O      -3.83997120     6.42578567    -7.95614585    -0.33328621     0.23552593     0.10609818
O      -7.90297756     6.21259401    -3.93117065     0.84452137     1.07657980    -0.00821575
O      -7.77866560     6.37987559    -8.02938137    -0.54685224     0.14690080     0.70918847
O      -3.82781643     4.46058236    -2.00765368    -0.25147063    -0.24550556    -0.21114122
O      -4.12782157     4.48865040    -6.03103077     0.92151770    -0.89441117    -1.48386361
O      -7.78719929     4.41988034    -9.84378597    -0.10599491    -0.34738621    -0.34979487
O      -7.74119129     4.41743784    -6.05295573    -0.21145455    -0.40425279    -0.44212126
O      -4.05459220     0.01490180    -2.07081971     1.48138539    -0.14291400     0.40382293
O      -3.99487942     0.07147643    -5.97756004    -0.71002372    -0.12180171    -0.42056452
O     -11.49807917     8.58136005    -5.98593606    -1.98786565     0.87212865     0.13461893
O     -11.69698925     8.62701609    -9.99112273     0.62789994     0.38508650     0.04560376
O      -9.76622837     4.39266005    -8.15847789    -0.46746876    -0.74307743     0.43368207
O      -1.93713726     3.95046442    -7.94928879    -0.54378404    -0.65822169     0.14552466
O      -5.94485323     4.19365730    -3.97317391    -0.40615658    -0.63191883     0.05119168
O      -5.84644926     4.84289726    -8.10446584     1.11319014    -0.34296098    -0.11546078
O      -2.04199385     0.27149137    -4.14481945     0.36032007     0.33614096     0.71424045
O      -5.81168254     8.73673836    -7.88528428     0.11604740     0.44029368    -0.36924742
O      -5.71774969     0.42311430    -3.98629144    -1.28204365    -0.68418498     0.25993458
O      -9.71164273     8.14932772    -8.01096091    -0.18620952    -0.19954897    -1.53554547
