# total energy = -630.55832252 eV

CRYSTAL
PRIMVEC
        0.00285542     0.02004370    -7.95977623
       -7.82940539     0.00763210    -3.98158109
       -3.91729101     8.74642787     0.01461334
PRIMCOORD
56 1
Li     -3.95386949     2.34922227    -1.79738427     0.14788041    -0.03677477    -0.76189920
Li     -4.07436685     2.24592706    -6.11608887     0.09916773    -0.33826413     1.54089784
Li     -7.77051403     2.36404525    -9.89585084    -0.04525645    -0.20617705    -0.54181011
Li     -7.87772570     2.00673879    -5.88851678    -0.33267088     0.17415238    -0.42154249
Li     -4.06210653     6.54068060    -2.03281000     0.78927674     0.04021899     0.29051707
Li     -3.84410594     6.49481333    -5.81817528     0.02181954    -0.05993474    -0.88823135
Li     -7.86152597     6.31882686   -10.02191933     0.20909337     0.05868324     0.55172019
Li     -7.87311495     6.78479954    -5.88683961     0.08760429    -0.34569676     0.13946453
Ti     -1.98776360     2.20717596    -4.08890690    -0.48681602    -0.84599470     0.36586131
Ti     -5.82169717     6.64367213    -7.82284335     0.19306290    -0.15656047    -1.12320906
Ti     -7.77958331     4.38932517    -7.68732206    -0.27005047    -0.01266179    -1.51844315
Ti     -7.76473002     4.29547988    -3.80588385     0.07953298     0.43737353     0.57856540
Ti     -3.60997492     4.35684127    -7.65529508    -1.19591841     1.38089692    -0.44889162
Ti     -3.89233068     4.43278595    -3.73873829    -0.45212566    -0.16179263    -0.29510616
Ti     -6.12412758     8.70783356    -1.99559609     0.54483382     0.20253629    -0.70659726
Ni     -5.90064780     2.50832633    -8.06383207     0.06105020    -0.80401390     0.04500860
Ni     -5.85655020     2.28119408    -4.06025402    -0.79393088    -0.48095610     0.38397550
Ni     -9.71867832     6.52574502    -7.76749264    -0.52424801     0.13197137    -1.23374586
Ni     -9.75827411     6.56828360    -4.02875578    -0.16559861     0.34671075    -0.03942485
Ni     -2.13172544     2.09371813    -7.93256594     1.62763776    -0.45199639    -0.73370939
Ni     -5.87140783     6.58689338    -3.92995928    -0.21680370    -0.25202747    -0.63666120
Ni     -1.92427159     0.02590716    -5.93580224    -0.61875606     0.22186365    -0.40844538
Mo     -9.91756254     8.69413640   -10.10960080    -0.13739819    -0.82958195    -1.88686722
Mo     -5.92449740     0.02560826    -6.39274597    -1.23555975    -1.22036343     0.28813745
O      -2.04594005     1.90151771    -1.94138779     0.20415890     0.41805019     0.38743635
O      -1.96923680     1.92249255    -6.07525902     0.23659452    -0.74325562     0.80970009
O      -5.89788317     6.77624206    -2.02291399    -0.27710646    -0.05599308    -0.03314280
O      -5.97213754     6.92706939    -5.95215415     0.96234303    -0.01869501     0.89326346
O      -5.70956050     1.85921652   -10.18701770    -1.25643102     0.65265580    -0.21107273
O      -6.01018075     1.87000896    -5.87420661     1.09234699     0.16399213    -0.19740904
O      -9.66433504     6.85282397    -9.63246391    -0.40025151     0.63881533    -0.08951179
O      -9.80611397     6.74755240    -5.94315723    -0.05503466     0.82066046    -0.63295047
O      -4.03196086     2.38967955    -4.07146465     1.91082066     0.63709730    -0.19711353
O      -3.97045376     2.48324448    -7.85684901    -0.25139340    -0.02659464    -0.90981266
O      -7.77553439     2.38471679    -4.08920796    -0.48714989     0.20942674     1.21034239
O      -7.75044225     2.40961510    -7.94084651    -1.55491087     0.45774351    -0.47236441
O      -3.87157365     6.39733280    -4.08143879     0.27608707    -0.53425664     2.24920206
O      -3.90701301     6.35700772    -7.94034506    -0.36497463    -0.20616358     0.35005035
O      -7.81873367     6.38762316    -4.02160453     0.10531253    -0.57357938     0.42804481
O      -7.76930947     6.34200690    -7.92135420    -0.39792187     0.08783513     0.30393066
O      -3.97558374     4.34267814    -1.99488628     0.21833761     0.16944871     0.50145573
O      -3.74185753     4.49186898    -5.90379576    -0.43311382    -0.46964462    -0.66602457
O      -7.90588189     4.23651880    -9.95868700     0.19386882     0.56523725    -1.05006154
O      -7.69088178     4.27884552    -6.00484840    -0.55047196     0.04185326     2.20093337
O      -7.90008389     8.72077697    -2.02550331    -0.83740236    -0.28532028     0.02395855
O      -8.03612030     8.67327606    -6.02629712     0.01449102     0.68723304    -0.42347989
O     -11.67021483     8.62119125    -6.18695187     0.81398244     0.14063415     0.47314943
O      -3.86397002     8.58508012    -6.01834194    -0.07593414     0.42127683    -0.00673380
O      -1.99631466     4.08696148    -3.95721764     0.83949566     0.26622724     0.16100939
O      -9.67941533     4.71973607    -4.08799165     0.19861391    -0.19083913    -0.03188716
O      -5.85676312     4.59048529    -3.96267962    -0.22517612    -0.05916414    -0.35180649
O      -5.86489625     4.45496926    -7.97334398     0.76399077    -0.10384361     0.04716455
O      -1.85676428     0.28786537    -3.93296070    -0.51382751    -0.28953967    -0.60984356
O      -5.83110730     8.54482226    -8.04512713     0.04055945    -0.84326341     0.66682678
O      -9.95987787     8.42646315    -4.07522500     0.85956589     0.41754127     1.37216050
O      -6.10255682     0.61028601    -8.21413007     1.51064277     0.50366427     1.15751937
