# total energy = -631.12668960 eV

CRYSTAL
PRIMVEC
        0.00279571     0.02951795    -7.98606283
       -7.83802570     0.01298533    -3.99532603
       -3.92160916     8.71933433     0.00634407
PRIMCOORD
56 1
Li     -3.88412673     2.17724329    -1.95070467    -0.23543234     0.16314327     0.07498627
Li     -4.04272634     2.22994439    -5.96156606    -0.04122733    -0.10692847    -0.40898160
Li     -7.94834202     2.34878179   -10.01759075     0.48943800    -0.04243298    -0.03707647
Li     -7.95080300     2.24495887    -5.87772683     0.74406549     0.06903133    -0.23998936
Li     -3.98289052     6.34763156    -1.91264578     0.40862896     0.34821314    -0.13895882
Li     -3.93267209     6.35789182    -5.79859868     0.03897290     0.10034463    -0.31714716
Li     -7.85923512     6.53112323    -9.93079038    -0.24448613    -0.32457742     0.02794568
Li     -7.80708974     6.52327148    -5.78318806    -0.03732103     0.11635555    -0.37478053
Ti     -2.00514342     2.21649255    -4.16309782     0.41073316    -0.39298699     1.34548582
Ti     -5.84920983     6.86304513    -7.92332492     0.21900159    -0.63977621     0.17987835
Ti     -7.73936993     4.34766448    -7.67804342    -0.15568328     0.34904879    -1.45443917
Ti     -7.76241116     4.37193865    -3.74532817    -0.42040003     0.16663025    -1.19761351
Ti     -3.82737343     4.41473291    -7.70829616     0.62902108    -0.82366824    -1.20313866
Ti     -3.87499261     4.35462235    -3.69779016    -0.98729169     0.81586829    -2.25559639
Ti     -6.14082567     8.68882888    -2.17981737    -0.31413600    -0.03789905     0.85613544
Ni     -5.86969253     2.41072779    -8.12218840     0.61736093    -1.00841307     0.71366167
Ni     -5.90143322     2.14296501    -4.07728171    -0.51571048     0.32114438     1.32005577
Ni     -9.73956670     6.72650291    -7.93147601    -0.53975393    -0.91294147     1.49424311
Ni     -9.77762496     6.52653031    -4.02974590     0.09861785     0.79111288     0.66011952
Ni     -1.93265125     2.01851365    -7.98168021    -0.56728953     0.23792090    -0.10719233
Ni     -5.86344672     6.61256481    -3.94691179     0.41538869    -0.54596128    -0.14301423
Ni     -5.93731297     8.67690773    -5.98554826    -0.39236757     0.15528690     0.51220997
Mo     -6.02350781     0.08020016   -10.18371992    -0.77326085     0.09648465    -0.83668953
Mo     -9.84273074     8.61431639    -6.29310595     2.33854015     0.79963322    -1.22197983
O      -1.89718397     1.87640696    -2.01291801    -0.67896391    -0.28807593     0.33738516
O      -2.05159392     1.83579390    -5.99127290     0.22820650    -0.06369927    -1.25504057
O      -5.85760949     6.78247394    -1.96748062    -0.25182693    -0.10994572    -0.71779506
O      -5.88477349     6.86093532    -5.97154748     0.16250506    -0.40912914     0.73214899
O      -5.89054421     2.11640399   -10.06193904    -0.10654572    -1.40957869    -1.05030573
O      -5.94685753     1.88950453    -5.93893226     0.26305746    -0.16343291    -0.06218158
O      -9.83587150     6.85503678    -9.74724979     0.14393115     1.26399356    -0.74092374
O      -9.73608459     6.68303669    -5.92130524    -0.17820053     0.40020726    -1.37196954
O      -3.95052180     2.31769696    -3.96794265     0.42101316     0.79776543    -0.21373808
O      -3.86309260     2.43370820    -8.03452336     0.09460135     0.78880302     0.33076420
O      -7.89333526     2.31584201    -3.97810782     0.50986375     0.81174463     0.07834035
O      -7.80134144     2.37408705    -8.03571102    -0.61142696     0.89816852     0.19832201
O      -3.86903865     6.40063132    -3.93389494     0.29143248    -0.87102391     0.28491930
O      -3.96886659     6.42433830    -7.85179922     0.22721386    -0.69574060    -0.50745767
O      -7.74881221     6.41288404    -3.88642628    -0.50831542    -0.98567646    -0.17887804
O      -7.72466845     6.42336021    -7.95859910    -0.93855958    -0.94342237     0.11831935
O      -3.96261883     4.43170837    -2.00161475     0.13957358    -0.22152924     1.29356191
O      -3.90130080     4.37444228    -5.97541521    -0.08226845    -0.09777269     0.68937356
O      -8.03383602     4.38005290   -10.01776698     0.33664168    -0.00503078     0.90705145
O      -7.95556097     4.39565688    -5.95439082     0.41459628    -0.13876260    -0.04425796
O      -8.02129898     8.71073594    -2.12668260     1.00792669     0.23405877     0.65074516
O      -7.92690271     8.59156693    -5.98009040     0.38707050     0.37936087    -0.55403202
O     -11.55053784     8.52569344    -6.08244044    -1.49883820     0.32881473    -0.13065310
O      -7.83184420     0.09126698    -9.97524453     0.40896982    -0.08316604    -0.30679458
O      -1.94322845     4.07966663    -4.07257404    -0.22118469     0.02553211     0.51603982
O      -9.79584862     4.70042663    -4.13641338    -0.09623363    -0.60650138     0.69686238
O      -5.87092175     4.37135883    -4.14874436     0.35854509    -0.00276769     0.86146449
O      -5.85166233     4.26543627    -8.18441896    -0.37808676     0.71621899     1.15695969
O      -2.07621461     0.18865167    -3.94465292     0.69881295    -0.00123136    -1.52915125
O      -5.69079463     8.60529466    -8.22030849    -0.55323281     1.03360802     0.77157969
O      -9.77915496     8.43391769    -4.05874566    -0.64102083     0.40823043     1.04333150
O      -5.76122141     0.59072237    -8.13474268    -0.56440512    -0.74138415     0.81561956
