# total energy = -630.73225481 eV

CRYSTAL
PRIMVEC
        0.00285542     0.02004370    -7.95977623
       -7.82940539     0.00763210    -3.98158109
       -3.91729101     8.74642787     0.01461334
PRIMCOORD
56 1
Li     -4.00626891     2.19783969    -1.90501357     0.32891378     0.05071586    -0.21507215
Li     -3.97353208     1.97935623    -5.98156523    -0.01437821     0.63276652     0.30882705
Li     -7.69424725     2.37966797    -9.94769971    -1.03100119     0.23885664    -0.05873253
Li     -7.93731007     2.26457079    -5.84745965     0.56640672     0.02413603    -0.34385712
Li     -3.80247680     6.23785353    -2.01137346    -0.07912118     0.30323655     0.21980787
Li     -3.77931123     6.48721208    -5.91043995    -0.72391758    -0.09438460     0.18157343
Li     -7.77231754     6.59289228    -9.94568112    -0.57404676    -0.19702099    -0.09205522
Li     -7.70948065     6.43821499    -5.83248050    -0.15263919     0.56658995    -0.23806287
Ti     -1.96200712     2.06565812    -4.03134591    -0.87800535     1.03526073     0.05014768
Ti     -5.78343252     6.59399303    -8.05940454    -1.58671624    -0.86047693     1.46146469
Ti     -7.93350939     4.48488253    -7.79463189     0.03709649    -0.47859956     0.30276850
Ti     -7.88074709     4.41577805    -3.91490544     0.34265431    -0.24221663     1.67752841
Ti     -3.82216642     4.27159556    -7.72107777    -1.16297452    -0.77665055     0.48414286
Ti     -3.98850038     4.42497561    -3.80085988    -0.15239526    -1.15446296    -1.92637223
Ti     -5.69360030     8.70585474    -1.90079564     0.48954745     2.28795507    -0.35877429
Ni     -5.91130632     2.39218034    -7.94699470     0.41177813     0.50458964    -0.30416763
Ni     -5.89659465     2.08028075    -3.84607856    -0.25434903    -0.04866737    -2.06513336
Ni     -9.74217080     6.59149788    -7.99487556     0.17271440     0.41762007     1.06421705
Ni     -9.81527941     6.50479465    -3.95515185     0.51200212     0.12251398    -0.33664026
Ni     -1.97829085     2.09571964    -7.86792696     0.63445031    -0.10893752    -0.69015679
Ni     -5.90205734     6.62948988    -3.94761978     0.28267875     0.95631642    -1.04526882
Ni     -5.87979530     8.70384978    -5.88727495     0.47673527     1.50732286    -0.17571349
Mo     -5.93859613     0.09132618   -10.23592692     0.10301150     0.55190250    -1.40001765
Mo     -9.72305372     8.72457404    -6.31824703     0.23880695     0.24606646     0.68069797
O      -1.99081485     2.02465467    -1.85377151     0.22015430    -1.70716133    -0.43400480
O      -1.99199959     1.87207161    -5.98053169     0.02743054    -0.53297953     0.26527348
O      -5.83681268     6.79500909    -2.01534774     0.01370440    -0.01031698     0.28756862
O      -5.74813786     6.95228846    -5.87211654    -0.35734302    -1.05451848    -0.01449359
O      -5.93850864     2.12238631   -10.02681760     0.87715437    -1.03007623     0.95253514
O      -5.94419526     1.82392009    -5.76153093     0.24635985     0.32218666     0.43305176
O      -9.76141186     6.86803303    -9.80159797    -0.42492216    -0.05503023    -0.71882380
O      -9.75514278     6.85651164    -6.10935808    -0.43313104    -0.93482658     0.41799204
O      -3.94075265     2.33319174    -3.88750568     0.02000736    -0.05574026    -0.62260135
O      -3.84899899     2.32746842    -7.98156635    -1.04253553     0.90038479     0.58606213
O      -7.87149467     2.41213908    -3.99112712     0.20249511     0.55350420     0.30885879
O      -7.77516334     2.52094517    -7.94477671    -0.72963122    -0.30679717     0.21976389
O      -3.78308069     6.35988918    -3.95374037     0.05960518    -0.34389927     0.10290203
O      -3.96986562     6.24345015    -7.95591073     0.99754020     0.91575930    -0.24239800
O      -7.85494729     6.50599581    -3.89231468    -0.39621410    -0.67642528    -0.60731322
O      -7.75004233     6.45149060    -7.93818179    -0.69872358    -0.32851573    -0.49309443
O      -4.24441819     4.24594224    -2.10031895     0.57139642     0.62901605     1.30358276
O      -4.05352169     4.25412189    -5.97107068     0.37355694     0.06300784    -0.08004893
O      -7.66011538     4.46020913   -10.09935662    -1.08280363     0.14718543     0.18662243
O      -8.04587031     4.61734291    -6.02864763     0.30528982    -0.63939124    -0.16211547
O      -4.17524456     0.07776614    -9.87720343     1.00017146     0.22603719    -0.27477934
O      -4.07454202     0.01368583    -5.92305636     0.72319471    -0.06965798    -0.78388136
O      -7.75604792     0.01421010    -6.01881753    -1.24853143    -0.28126766     0.23548557
O      -7.75993693     0.20351780    -9.93875652     0.16492387    -0.77976953    -0.25761294
O      -2.01137035     4.02386080    -4.11473789    -0.06245812     0.21008081     0.25621129
O      -9.87640675     4.68226999    -4.10196407     1.19599091    -0.37700318     0.41942950
O      -6.00581678     4.84675373    -4.20620520     1.18462972    -0.77395945    -0.05926029
O      -5.93766308     4.47357365    -7.94481435     0.33357036    -0.45573373     0.09127830
O      -1.97168691     0.13291437    -3.92197511     0.01214985    -0.12878649     0.55095382
O      -5.93306613     8.47187126    -7.93614289     0.61225516    -0.22551414    -0.63148366
O      -9.80143075     8.31937701    -4.09584405    -0.58125548     0.61838305     1.38246767
O      -5.93305418     0.52252337    -8.06158145    -0.12580316     0.67930577     0.26598378
