# total energy = -631.15857596 eV

CRYSTAL
PRIMVEC
        0.00285542     0.02004370    -7.95977623
       -7.82940539     0.00763210    -3.98158109
       -3.91729101     8.74642787     0.01461334
PRIMCOORD
56 1
Li     -3.98779300     2.37232487    -1.91219457    -0.07637042    -0.49940228    -0.06170332
Li     -3.90027731     2.18173221    -6.00770140    -0.21865116    -0.17008133     0.18311453
Li     -7.82277329     2.34977391   -10.00674241    -0.32976174    -0.02004133     0.03627615
Li     -7.79716228     2.35931306    -5.96965591    -0.02696055    -0.47026869     0.34280230
Li     -3.82686353     6.37514551    -1.86180586    -0.09281637     0.52657047    -0.07863403
Li     -3.93875905     6.25749906    -5.81083830    -0.17042736     0.71980447    -0.34162510
Li     -7.85519827     6.36158919    -9.81576288     0.06270071     0.02218186    -0.82607209
Li     -7.80837369     6.41022087    -5.74633639    -0.25375306     0.05382728    -0.44340404
Ti     -2.01197913     2.36800112    -3.97713822    -0.50033346    -1.43478598    -0.46853479
Ti     -5.92104009     6.78326781    -7.85382350     1.35568782     1.45085999    -1.04852810
Ti     -7.66904261     4.29257990    -7.71289014    -0.90902123     1.29119624     0.38692000
Ti     -7.70760375     4.33853379    -3.79451002    -0.88836946     0.24685783    -0.92066069
Ti     -3.77238207     4.36435727    -7.72136137    -0.08323108     0.47623205     1.63926113
Ti     -3.98075248     4.46426363    -3.69757556    -0.35158636    -0.27575674    -0.55195099
Ti     -6.09056837     8.69232981    -2.20763747    -1.18537758     0.54996447     0.61394195
Ni     -5.92499865     2.34330462    -8.05645874     1.17139825    -0.55002346     0.41380164
Ni     -5.90485319     2.25639515    -4.08491149     0.43159118    -0.79207070     0.87982609
Ni     -9.78636743     6.41091136    -7.91476207     0.23475043     0.04004112     0.41894190
Ni     -9.68762811     6.45073691    -3.80945500    -0.50911630    -0.40515719    -1.36567896
Ni     -1.90795295     2.30892399    -8.00860499    -0.38490707    -0.56429043     0.25520200
Ni     -5.89422528     6.72361622    -3.92766786     0.11345376    -0.06359442    -0.56453974
Ni     -5.86592226     8.75534991    -5.98888147    -0.69739514     1.65390312     0.14747353
Mo    -10.02646153     8.69623893   -10.06450467     1.20380720     0.74371255    -2.02630589
Mo     -9.79075272     8.62606363    -6.35387329    -0.27872825     0.09452754     0.01880830
O      -1.90921358     1.93075699    -2.08398483    -0.23174197    -0.01430154     0.42718454
O      -1.92096126     1.85237919    -6.04721150    -0.08216714     0.21047782     0.31650714
O      -5.84457706     6.80491576    -2.02846205    -0.21764351    -0.01284341     0.51960783
O      -5.98794922     6.95649440    -5.93592532     0.67384754    -1.33314682     0.45428497
O      -5.97477912     2.03577761    -9.99761892     0.43694219     0.03234226    -0.41782609
O      -5.83948947     1.99187293    -5.96618886    -0.63892045    -0.47273267    -1.01112155
O      -9.86256080     6.81787209    -9.89270378     0.53069841    -0.51462283     0.72308524
O      -9.64471411     6.72561643    -6.00614735    -0.96801889     0.37720805     0.30614346
O      -3.94559052     2.29666740    -3.96283214     0.55377707     1.57201440     0.03321653
O      -3.82248869     2.45934123    -7.92830574    -0.47951810     0.06366464    -0.45094588
O      -7.86033963     2.39312799    -4.02104745     0.28532457     0.12389443    -0.19722819
O      -7.86116674     2.41459554    -7.97873071     0.20222215    -0.04046001    -0.15381082
O      -3.88366773     6.39741553    -3.91760324    -0.10326808    -0.55054602     0.17611323
O      -3.95470053     6.36187838    -7.90036771    -0.34992110    -0.10873615     0.35711464
O      -7.78421422     6.31853931    -3.88864087    -0.21640338     0.53572804     0.23565579
O      -7.75869929     6.25816280    -7.98884078    -0.39463059     0.44933696     0.45324781
O      -3.79474865     4.44858730    -1.91963489    -0.50499323    -0.41643769    -0.95349103
O      -3.80692060     4.47266087    -5.88540145    -0.07103462    -0.83656210    -1.37812640
O      -7.80840815     4.36056066   -10.03012698    -0.31429739    -0.06010377     2.18801386
O      -8.02450034     4.40345543    -5.96287372     0.98373935    -0.15975583    -0.85124570
O      -4.06215873     0.02886829    -9.98002767     1.43575788    -0.43874722    -0.49791704
O      -8.04591702     8.72560452    -5.85549684     0.72818769     0.20689979    -0.51543639
O     -11.57967006     8.59163949    -6.10958379     0.54543918     0.38315282     0.46028139
O      -3.95383627     8.67169685    -6.00778511     0.17292708     0.03669834     0.06179814
O      -1.96478201     4.22530431    -4.02180685    -0.23946461     0.11775822    -0.09620862
O      -9.71304953     4.45856994    -4.03723992    -0.51636888    -0.10041182     0.36581471
O      -5.87179617     4.27522664    -4.12101518     1.57415279    -0.61022495     0.14215207
O      -5.83709177     4.35808312    -7.97788616     0.70232266    -0.53314436     0.16226278
O      -1.76621187     0.26701103    -4.01812820    -0.80173521    -0.23365896    -0.06899108
O      -5.85518801     8.67744659    -8.04182476    -0.28767777    -1.75145862     0.35640699
O      -5.95681199     0.34262285    -3.91951462    -0.13571179     0.09151470     0.03915851
O      -5.86257030     0.45019187    -8.20686968    -0.00941844     1.06553199     2.06239795
