# total energy = -630.44250911 eV

CRYSTAL
PRIMVEC
        0.00279571     0.02951795    -7.98606283
       -7.83802570     0.01298533    -3.99532603
       -3.92160916     8.71933433     0.00634407
PRIMCOORD
56 1
Li     -3.95299432     2.03957625    -1.88396491     0.15782179     0.28380681    -0.32366327
Li     -4.01128637     2.41392637    -5.96646840     0.24646840    -0.26809347    -0.22505533
Li     -7.95666192     2.00592612    -9.99886005     0.48570888     0.50043955    -0.25024310
Li     -7.78166662     2.42290027    -5.95778208    -0.34472950    -0.16351492     0.42299779
Li     -3.81019935     6.51420600    -1.79901096    -0.61528806    -0.21983732    -0.46958954
Li     -3.91357946     6.36082020    -5.91700252     0.18940813    -0.01336503     0.02926519
Li     -7.79297476     6.65839977    -9.85918344     0.02045550    -0.07907176    -0.49621195
Li     -7.83884077     6.44009111    -5.87849626     0.08127840     0.11022540     0.21684223
Ti     -1.98003474     2.33418917    -4.11753658    -0.62650124     0.07263217     0.35458899
Ti     -5.84100810     6.86536285    -7.92043032    -0.10052244    -2.49847622    -0.17321313
Ti     -7.76801161     4.43479033    -7.76620686    -0.75300741     0.34406082     0.81929134
Ti     -7.75673083     4.31499505    -3.67263658    -1.06981041     0.50403737    -0.37382278
Ti     -3.91564093     4.32046918    -7.74875651    -0.71130103     0.15590290     0.23038287
Ti     -4.01328779     4.43661028    -3.69482313    -0.15965692    -0.51348336    -0.65075572
Ti     -2.03117562     0.06573863    -2.26469875    -0.36928850    -0.06143215     0.20330887
Ni     -5.99890941     2.24604457    -8.11326690     0.83514080     0.43641859     0.54028550
Ni     -5.91692902     2.23592123    -4.11263842     0.73120368    -2.19767659     1.59058031
Ni     -9.83771258     6.52568113    -7.81859671     0.26781637    -0.20208225    -0.09440751
Ni     -9.75648137     6.37074506    -3.96318584     0.50363569    -0.58324841     0.44514521
Ni     -2.01216547     2.27187237    -7.97804882     0.31821948     0.16667846    -0.48331700
Ni     -5.78980957     6.71538863    -3.94643059    -1.41530201    -0.72484581     0.08710972
Ni     -5.91532931     8.73245122    -6.03365714    -0.69076886    -0.03173008     0.91164416
Mo     -9.91995622     8.74828781   -10.24853099     0.57323308    -1.36183885     0.22886806
Mo     -9.86671466     8.69746275    -6.31414138     2.51641652    -1.15774308    -0.39178364
O      -2.02937796     2.00266331    -1.92397605     0.82124245    -1.16593143    -0.89607815
O      -2.03833822     1.91613029    -6.10003494     0.15468514    -0.63816218     0.90103805
O      -5.92332292     6.78831314    -1.90695832     1.29943601     0.46113273    -0.71950861
O      -5.84652116     6.81471630    -5.87537713    -0.06035523     0.82151298    -0.46106972
O      -5.89039410     1.99382927   -10.12661783    -0.07855335    -0.13206358     0.87136407
O      -5.81942862     1.90446645    -5.91924622    -1.18305736     0.54553932    -1.48195367
O      -9.64002920     6.91910356    -9.79069071    -1.25922499     0.44241073    -0.20112935
O      -9.82200373     6.69345216    -5.85238958     0.30419402     0.70452784    -0.91995009
O      -3.93351043     2.39188624    -4.05112848     0.53200468     0.34072921     0.21451573
O      -3.87030492     2.41249874    -7.98136760    -1.26622476    -0.04448158     0.11645161
O      -7.95311440     2.26259324    -3.95619529     0.49410250     1.18777756    -0.36287747
O      -7.93768059     2.24202813    -7.87576336     0.68859306     1.43788748    -1.04688899
O      -3.96130718     6.34921966    -4.01012708     1.02479248     0.07786781     0.76126299
O      -3.86808592     6.31383038    -7.91799609    -1.04252755     0.44366689     0.12236243
O      -7.79667691     6.29530209    -3.89540223    -0.24497734    -0.48896720    -0.15480339
O      -7.76458465     6.40127374    -7.99741040    -0.05140055    -1.06003277     1.10386211
O      -3.69913834     4.33088071    -1.99193466    -0.66205298     0.39199466     0.39985728
O      -3.79108643     4.40304302    -5.97139362    -0.50829514    -0.20999160    -0.14886473
O      -7.68583179     4.25131801    -9.92387715    -0.73280877    -0.14560069     0.33871148
O      -7.68723313     4.36613390    -5.97703748    -0.51947252    -0.04089391    -0.66949553
O      -3.83031145     0.02387323    -2.12413197    -0.78844747     0.10221845     0.09446189
O      -8.07524513     8.54359309    -6.21537835     0.44562497     0.07222657     0.80365389
O     -11.62141862     8.55376975    -6.06999932    -1.90876979     0.27125005     0.71609718
O     -11.67434207     8.72109132   -10.19846811     0.31776760    -0.24431200     0.04662548
O      -1.91705525     4.23331145    -4.02647895    -0.24739218    -0.52402251    -0.18686006
O      -2.01572257     4.35765911    -7.97718266     2.14534004     0.18037531    -0.00415133
O      -5.88193256     4.00793027    -3.94530446     0.41003291     1.65490582    -0.32112662
O      -5.95726147     4.16569789    -8.01469646     2.14875389    -0.05392124    -0.22091763
O      -1.79186044     0.24929912    -4.12542416    -0.64874431     0.29670149     0.41753991
O      -6.01137089     8.57283145    -7.93388369     0.48464598     2.31438424    -0.15467698
O      -5.72058362     0.28452526    -4.02543184    -0.45454698     0.07422040    -0.53610238
O      -5.97739378     0.39695441    -8.15596207     0.11142322     0.80456707    -0.48314290
