# total energy = -631.06127102 eV

CRYSTAL
PRIMVEC
        0.00279571     0.02951795    -7.98606283
       -7.83802570     0.01298533    -3.99532603
       -3.92160916     8.71933433     0.00634407
PRIMCOORD
56 1
Li     -3.87818109     2.34933934    -1.86609009    -0.49577784     0.08794160    -0.43240308
Li     -3.88643027     2.43860251    -5.99017217    -0.10061883    -0.61970219     0.31533886
Li     -8.14260617     2.33966119    -9.93353973     1.05501085     0.30662985    -0.18909054
Li     -7.70691694     2.20122272    -6.05001046    -0.32855060    -0.12539668     0.49967241
Li     -3.85100354     6.58832201    -1.95421414     0.16343271     0.13623847     0.02162557
Li     -3.94835646     6.71366970    -6.04351462     0.09301964    -0.26301802     0.60258605
Li     -7.94412031     6.52777557    -9.96810801     0.18752894    -0.14835363     0.06977805
Li     -7.77442132     6.63534047    -5.79163125    -0.09242404    -0.05721431    -0.59918966
Ti     -2.11647990     2.03207488    -3.90282398    -0.03223347    -1.10973324    -1.08856030
Ti     -5.83123036     6.37660158    -7.93393190    -0.98198397     0.94778586    -0.36702394
Ti     -7.91653922     4.30983701    -7.69321387    -0.46734036     0.12935040    -2.29534663
Ti     -7.88893754     4.33498962    -3.73151598     0.85798802     0.24756429     1.10584740
Ti     -3.79758287     4.35252632    -7.71512276     0.93938975     0.07587409    -0.11651270
Ti     -3.90779820     4.57030276    -3.73251941    -0.21069676    -1.14703870    -0.90570926
Ti     -6.16774440     8.63726605    -1.85466274    -0.83541893    -0.59139273    -0.77495719
Ni     -5.82300736     2.33997193    -8.02616628    -1.11262945    -0.03871122    -0.27468408
Ni     -5.89565856     2.17148645    -3.97225190    -0.11109947     0.24396209    -0.32374047
Ni     -9.73404784     6.67541881    -8.03709111    -0.25663454     0.35172547     1.00497986
Ni     -9.67402198     6.48466139    -4.05978965    -0.59781345     0.19297006    -0.40203539
Ni     -1.97224434     1.98387266    -8.08323696     0.13345388     0.51626250     1.69598779
Ni     -5.81619133     6.61370966    -3.92998165     0.01135712    -0.31229795    -0.23035687
Ni     -1.98002067     0.02468156    -6.04450336    -0.92211188    -0.75206119     0.60596782
Mo     -6.13245220     0.18049643   -10.31123512     0.28539676     0.30680929     0.41276032
Mo     -5.81987641     0.08011542    -6.40442425    -0.84795600    -0.64108312    -1.01768266
O      -2.00118864     1.82973613    -1.95956167     0.61114280     0.52297228    -0.15173933
O      -2.02455999     1.82231008    -6.00365892    -0.53866574     0.27165984    -0.27950938
O      -5.85468152     6.71599428    -1.96535325     0.05815343     0.44084259     0.41730674
O      -5.88322686     6.86376132    -6.00935202     0.60628792    -0.00120175     0.06789525
O      -5.94631290     2.04508511   -10.05004229     0.54183753     0.62907341    -0.52027829
O      -5.78633771     1.96381933    -5.92036868    -0.47005132     0.20290164     0.81303864
O      -9.88100638     7.01859878    -9.89060346     0.27508262    -0.63362461     0.34240804
O      -9.71552393     6.85469298    -6.11801300     0.23331497    -0.58211216     0.28746820
O      -3.98457331     2.34518061    -3.97259567     0.13628278    -0.07444964     0.49127633
O      -3.92842096     2.40675396    -7.95951648     0.56859987     0.31540340    -0.34168948
O      -7.85962475     2.39544733    -4.01054772     0.23807196     0.03023958     0.02554389
O      -7.76560751     2.40619323    -8.07278849     0.13180510     0.42178562     1.10918234
O      -3.85278552     6.45308237    -3.97766675     0.55609262     0.06378053    -0.27803963
O      -3.88547200     6.32729543    -7.97784431    -0.15109303    -0.04804541     0.31861369
O      -7.68908089     6.33186880    -3.92717125    -1.07121503     0.01065085    -0.14728560
O      -7.76456497     6.37250194    -7.97123595    -0.62038347    -0.86275108    -0.11076866
O      -3.74661451     4.47810203    -2.01063134    -0.21644061    -0.56081935     0.90591721
O      -3.80844191     4.31487229    -5.95036997     0.30973600     0.47298445    -0.31854422
O      -7.99174556     4.45971379    -9.91057221     0.10346052    -0.16646326    -1.37332019
O      -7.80026738     4.40295124    -5.99612011     0.22479457    -0.03407109     1.52236862
O      -4.06394487     0.04745796   -10.05191618     0.64103783     0.09735733     0.41178853
O      -7.94290010     8.70229640    -6.13596531     0.86051329     0.03680395     0.33980646
O     -11.52255357     8.66242375    -6.09547218     0.08205306     0.51731023     0.66731148
O      -0.07853894     0.18399831    -6.08656429     0.76154894    -0.62380289    -0.55944580
O      -1.97058311     3.86290424    -3.93005079     0.15461453     1.28394844    -0.04761019
O      -9.72561279     4.57130781    -4.18692306    -0.35691856     0.52309256     0.74809165
O      -5.80410550     4.57204412    -3.87258263    -0.80462657     0.08596584    -0.49614453
O      -5.80129120     4.35823442    -7.94450520    -0.14069974     0.52063304    -0.18678471
O      -1.80233632     0.02824352    -3.85723129    -0.78145800     0.44202206    -0.29700531
O      -5.95512986     8.42538526    -7.96830826     0.43148827    -0.21627773    -0.84301367
O      -9.77332878     8.44727910    -4.02882130     0.09051285    -0.88888314    -1.14563263
O      -6.04898109     0.50121552    -8.23307240     1.17465025     0.10517950     1.34499501
