# total energy = -630.46380106 eV

CRYSTAL
PRIMVEC
        0.00279571     0.02951795    -7.98606283
       -7.83802570     0.01298533    -3.99532603
       -3.92160916     8.71933433     0.00634407
PRIMCOORD
56 1
Li     -3.80170749     2.28573545    -1.79087791    -0.26551876    -0.02669580    -0.76361078
Li     -4.03875501     2.39808324    -6.05875585     0.17800863     0.21941991     0.33075379
Li     -7.79419843     2.29666896   -10.10974835    -0.23867354    -0.23870274     0.27559836
Li     -7.94623013     1.94758162    -5.85448790     1.18722700     0.21902922    -0.57120836
Li     -3.85628787     6.50182633    -1.85614272    -0.14144941     0.39664397     0.16547127
Li     -4.07293026     6.40642536    -5.96391732     0.38522592     0.21147717     0.55067774
Li     -7.93903813     6.30208573    -9.80511748     0.36492960    -0.20032746    -0.65432909
Li     -7.86230475     6.54488467    -5.73731019     0.12000338    -0.31477422    -0.64249624
Ti     -1.98017597     2.20869776    -4.06628893    -0.70569995     0.39422825    -0.04368891
Ti     -5.95861182     6.68497664    -7.83475039     0.76178107     0.83318157    -1.38185354
Ti     -7.77812508     4.28321063    -7.62690724    -1.07576635     0.57439080     1.14294474
Ti     -7.69712238     4.27338903    -3.82285361    -0.58685953     0.30864043     0.83034919
Ti     -3.77214510     4.42421668    -7.77474970     0.64565384     0.54994835     0.16267189
Ti     -3.96827547     4.53843330    -3.68322615     0.78989526    -1.21344093    -0.27855271
Ti     -6.12641606     8.68457152    -2.10389454    -0.34398394    -1.15827232     0.21495657
Ni     -5.91381146     2.34650884    -8.21920868     0.27142802    -0.10444736     1.43458103
Ni     -5.77908228     2.05307076    -4.07551694    -0.79254487     0.97131596    -0.04585999
Ni     -9.84022680     6.60093532    -7.96696699     0.75105589    -0.08869142     1.17213859
Ni     -9.66569946     6.55154392    -3.91216464    -0.09719527     0.50857032    -0.70235561
Ni     -1.80474063     2.07269558    -8.02455330    -0.87911652     0.52502903     0.68381295
Ni     -5.85505698     6.67013390    -3.89362105    -0.00025492    -0.38656648     0.04178129
Ni     -6.10988948     8.71221660    -5.95670581     1.69201626     1.22114355    -0.26607664
Mo    -10.01939372     8.75196305   -10.26653896     0.95254836     0.15090821    -0.12218733
Mo     -5.83770892     0.04061098    -6.43554099    -1.57349955    -0.64314826     0.66063623
O      -1.89271230     1.87754242    -1.96922982    -0.60971679    -0.28189314     0.05611065
O      -2.00726412     1.92045799    -6.01534084    -0.14928435    -1.03231490    -0.07927395
O      -5.86126392     6.69167792    -1.91202603    -0.48732148     1.08097522    -0.52638139
O      -5.93391801     6.87741401    -5.86918900    -0.48337693    -0.00307646     0.33943087
O      -5.72500650     1.97389192   -10.15919973    -1.11599786    -0.06893648     0.49423340
O      -5.94322056     2.01330941    -5.96818030     1.10404996    -1.36801605    -0.27502098
O      -9.82937897     6.91477816    -9.91528269     0.23233226    -0.49604331     0.69218285
O      -9.67707530     6.81018431    -5.98971173    -0.98993794     0.59102223    -0.28652421
O      -3.98994077     2.42653517    -3.89527004     2.10712172     0.37335881    -0.94905514
O      -3.78292632     2.55199826    -7.93742796    -0.13205027    -1.14016272    -0.52842718
O      -7.71675286     2.29516866    -4.06891126    -0.67600583    -0.03999987     0.74001583
O      -7.87107933     2.39227410    -7.91422977     0.00896463    -1.11668802    -0.75139934
O      -3.85193684     6.50529713    -3.94706339    -0.42785798    -0.83222858     0.03591838
O      -4.10160732     6.40073425    -7.83922697     0.83608111    -0.08035449    -0.75197817
O      -7.71728793     6.32357343    -3.93398770    -0.20503063    -0.28458707     0.97175151
O      -7.85045648     6.22915242    -7.91386543    -0.61064972     0.18633507    -0.15688984
O      -3.99205551     4.51372536    -1.92551961     0.08639112     0.11023132     0.08242874
O      -4.03427163     4.55794137    -6.02861577     0.27323635    -0.69243919     0.70462487
O      -7.99127776     4.10283293   -10.01439062     0.21801706     1.26386548    -0.70648533
O      -7.96564444     4.31674297    -5.83803194     0.27684559     0.04888858    -1.18317951
O      -3.97003604     0.08099273    -9.96446242     0.27311762    -0.44114059     0.29044951
O      -7.94897570     8.67006641    -6.27116301    -0.67331814     0.51571050     0.50742309
O     -11.56548673     8.67785202    -5.95343402     0.93788710    -0.08864184    -0.52535890
O      -7.83991293     0.07282106   -10.22557288     0.23093482     0.19689806     0.36709659
O      -1.97961188     4.10631497    -3.90476376    -0.74978755    -0.34041542    -0.38349519
O      -9.72402124     4.72760400    -4.03611773    -0.61548903    -0.17066600     0.35790487
O      -5.80551826     4.23994839    -3.95922450    -0.49968532     0.04409487    -0.25374312
O      -5.96924554     4.19309845    -7.94181407     1.37331066     0.58177409    -0.45566474
O      -2.08145693     0.14537748    -4.04145987     0.27581297     0.82638112     0.55405521
O      -5.91416457     8.50185083    -7.96703039    -0.27180941    -0.05482643    -0.23351904
O      -5.60976960     0.04119088    -4.04140421    -0.56190106    -0.16079870    -0.35206956
O      -5.93207978     0.49624701    -8.22898146    -0.18545694     0.44479492    -0.23351344
