# total energy = -630.65564344 eV

CRYSTAL
PRIMVEC
        0.00279571     0.02951795    -7.98606283
       -7.83802570     0.01298533    -3.99532603
       -3.92160916     8.71933433     0.00634407
PRIMCOORD
56 1
Li     -4.07243873     2.48738420    -1.95584757     0.67051249    -0.34201319     0.02188673
Li     -3.84463412     1.87382555    -5.90434649    -0.36968312     0.63328164    -0.39634353
Li     -7.88663577     2.26300716    -9.92978416     0.18903962     0.13311784    -0.43235120
Li     -7.80718119     2.27821672    -5.84755468     0.28183171    -0.19814380    -0.30939092
Li     -3.90048785     6.33210365    -1.98941699     0.21697322     0.23633143     0.16717667
Li     -3.70768845     6.36030091    -5.96002026    -1.08216821     0.07975127    -0.07907965
Li     -7.96600874     6.45072834    -9.95924126     0.37890200     0.04808458     0.39378585
Li     -7.79330418     6.66321464    -5.99802496    -0.14839308     0.11387122     0.37258476
Ti     -1.96958384     2.22805303    -3.96703470     0.86855409     0.62659516    -0.27654573
Ti     -5.78099466     6.68044685    -7.96402410     0.25635863     0.13693651     0.90470336
Ti     -7.82975819     4.38838716    -7.70837391     0.29626239     0.99244093    -1.08188732
Ti     -7.98637893     4.41215343    -3.74889893     0.44915432    -0.12323216    -0.14746453
Ti     -3.88358551     4.27418929    -7.86358134     0.52897030     0.49474320     1.49004602
Ti     -4.07293538     4.39061282    -3.86888523    -0.06902298     0.68612391    -0.40808951
Ti     -6.04017435     8.70714816    -2.09198363    -0.00677397     0.75019309     0.12177855
Ni     -5.78242697     2.18819124    -7.90231943    -1.57959343    -0.30234412     0.50597134
Ni     -5.89825311     2.29270897    -4.04559226     0.15720677    -0.17834379     0.22774382
Ni     -9.94773257     6.39432165    -7.91306038     1.91304152     0.37309642    -0.34779871
Ni     -9.74681906     6.65936160    -4.07987444     0.40591890     0.19685419     0.77824221
Ni     -1.85306736     1.98067473    -8.03413561    -0.48680364     0.80134521     0.49277306
Ni     -5.89231026     6.69220779    -3.89448850     0.67605231    -0.41444641    -1.92809918
Ni     -2.00555762     0.02512692    -5.95781734     0.68253117    -0.33812014    -0.58262066
Mo     -9.89280069     8.75250322   -10.21738051    -1.35602548     0.62478398     1.24851219
Mo     -5.89220264     0.12748255    -6.36422294    -0.66455890    -0.48360872    -1.11371722
O      -1.80152957     1.94947593    -2.07944117    -1.16538435    -0.18990199     0.62343392
O      -2.01161224     1.84714985    -6.07790131     0.46448611    -0.00293316     0.56294727
O      -5.89822753     6.81571808    -2.04529345     0.40833121    -0.52415962     0.70579920
O      -5.74985711     6.88431399    -5.97831116    -0.74759142     0.44768338     0.44590070
O      -5.80434643     1.90924908    -9.71204204    -0.26141642    -0.49208792    -0.75661905
O      -5.82561610     2.03794333    -6.01561353     0.16820667    -0.19497051    -0.11094826
O      -9.80822236     6.87021509   -10.09782420     0.91920849    -0.67780354    -0.38249806
O      -9.83301010     6.86463268    -5.87291556    -0.04627526    -0.12553068    -0.34202437
O      -3.93961091     2.48991677    -4.02671099     0.58437582    -1.32713515     0.18175787
O      -3.98764794     2.29237291    -7.89054501     0.55001166     0.80352858    -0.75235499
O      -7.73258984     2.43667212    -3.94115397    -0.20850768    -0.77242037     0.01838824
O      -7.80331665     2.38364297    -8.06199998    -0.24124442     0.74070983     0.62896212
O      -3.98138755     6.34547396    -3.90983972    -0.21610632     0.16758028    -0.70824069
O      -3.75636408     6.39504063    -8.01921870    -1.13973635    -0.31196105    -0.13150050
O      -7.71523719     6.39511344    -4.05120012    -1.23454344    -0.96149778     0.56442064
O      -7.89134131     6.38940568    -7.87896612     0.02214765    -1.02231571    -0.51745285
O      -3.85304600     4.45833041    -2.11588388    -0.37954161    -0.68657227     1.66734567
O      -3.81444701     4.47934199    -6.10712497     0.27405107    -0.10669717     0.11218949
O      -8.06263729     4.29781663    -9.96882620     0.71285810     0.75990479    -0.32963087
O      -7.84009803     4.14640126    -6.00742018     0.13107120     0.72114990     0.59499057
O      -7.80926239     8.73481369    -9.96138913    -1.12256681     0.12446277    -0.33876840
O      -8.03449672     8.68166198    -6.02902595     1.30300689     0.44681820     0.41938806
O      -7.64549111     0.20625993    -6.02262288    -0.79554727    -0.65452447     0.11818930
O      -7.75066424     0.04714656   -10.06993956     0.49636737     0.24639773     0.31404524
O      -1.99051355     4.37399471    -4.00079833     0.37194388    -0.15330645     0.06945748
O      -1.93933595     3.87081048    -0.16187643    -0.46142676    -0.16336491     0.18290505
O      -5.92375334     4.13544947    -4.00606576    -0.75582866     0.50538397    -0.05888558
O      -5.79227695     4.83326876    -7.86179456    -0.82286505    -1.43817385    -0.88130242
O      -2.00381837     0.36577465    -4.00733900     0.02660680    -0.79704416    -0.35198405
O      -5.84640243     8.60166874    -8.00570981     0.26328517     0.86066381    -0.31121257
O      -5.92404250     0.24946992    -3.97362423     0.82363170     0.96183806    -1.65363920
O      -9.83072359     8.28287822    -8.12876283    -0.16521280    -0.68468698     0.81053478
