# total energy = -630.38862984 eV

CRYSTAL
PRIMVEC
        0.00279571     0.02951795    -7.98606283
       -7.83802570     0.01298533    -3.99532603
       -3.92160916     8.71933433     0.00634407
PRIMCOORD
56 1
Li     -3.99421440     2.40829118    -2.02013797     0.22836545    -0.26226337     0.28708618
Li     -3.94728689     2.10913311    -6.00545801    -0.07361172     0.05097199    -0.34864669
Li     -7.63578739     2.18155630   -10.00311842    -1.03715311     0.36340273    -0.41054497
Li     -7.84397003     2.21921484    -6.01561066     0.06413372     0.00825877     0.32284351
Li     -3.91798114     6.42407058    -1.84035569     0.27058304     0.02226705    -0.45525768
Li     -3.79966825     6.53557946    -5.79669642    -0.66402163    -0.45729759    -0.29443350
Li     -7.76712974     6.65439555    -9.81312818    -0.38859707    -0.68723699    -0.36694280
Li     -7.96663994     6.41779182    -5.94622548     0.92343643     0.05889020     0.59751829
Ti     -1.98720767     2.25933896    -4.14262160     0.14054982     0.96473960    -0.30229066
Ti     -5.79548971     6.64637351    -7.90107078     0.07426491     1.08490990    -0.01094150
Ti     -7.81813904     4.44027140    -7.70996536    -0.53857751    -1.02047842    -0.09731794
Ti     -7.75528059     4.41215815    -3.71411348    -0.69867548    -1.91278513     0.85730599
Ti     -3.80423327     4.35341742    -7.76724283    -0.09292096    -0.06896649     1.34787897
Ti     -3.96718344     4.49321861    -3.77641489    -0.12075307    -0.46637818    -1.22104369
Ti     -6.08551265     8.69345698    -2.26545697     0.43085976    -0.80446619     0.23752130
Ni     -5.93402877     2.41196368    -8.05311775     1.43870256    -0.29535604    -0.42922463
Ni     -5.78644247     2.28724543    -4.15733032    -1.78039401    -1.32305613     0.48768651
Ni     -9.68642184     6.54492575    -7.81922221    -1.58025855    -0.14431265    -0.26685438
Ni     -9.77240439     6.48758928    -3.90424638     0.26876828    -0.30615028     0.06703241
Ni     -1.99210353     2.14041821    -8.01046613     0.57356628     0.32465513    -0.08827453
Ni     -5.90975013     6.64539668    -4.00386996     0.16776455    -0.61781235     0.31774575
Ni     -5.90650724     8.60053614    -6.00160743    -0.23386781     1.06074017    -1.08341133
Mo     -9.90435153     8.71767050   -10.09339245    -1.51762250     0.58061341    -2.18102304
Mo     -9.83224365     8.63413875    -6.32910575     0.90107445     0.28615151    -0.83228223
O      -2.01973153     1.83202438    -2.11999356     0.49234996     0.89832106    -0.17642700
O      -1.92704939     1.78311429    -6.07900736    -0.46637506    -0.31772014     0.77888290
O      -5.80242593     6.77105688    -2.01056894    -0.46604031     0.32211891     0.28845409
O      -5.80423909     6.72767512    -5.93959068    -0.49268216     0.60660494    -0.09986753
O      -5.81578326     2.10231222   -10.11499653    -0.10945322    -0.90940204     0.09452136
O      -5.84375095     1.93854117    -6.16221495    -0.17665883     0.42860346     1.38866188
O      -9.79434827     6.82341596    -9.82315122     0.60096216     0.58585585     0.04728776
O      -9.73695090     6.71617668    -5.91677878    -1.32779547     0.18886641     0.26498746
O      -3.88845142     2.48767536    -4.05891882     0.69834971    -0.80756789    -0.35917779
O      -3.97426414     2.44791735    -7.91913223     0.15524725    -0.32207219    -0.90609198
O      -7.90739714     2.32709216    -4.11479116     0.33876215     1.01135196     0.75171685
O      -7.76350609     2.46514356    -8.02256119    -2.07247696    -0.22095344    -0.03334945
O      -3.88090123     6.37497844    -3.87981698     0.44403112     0.65955304    -0.22079027
O      -3.82760678     6.36341457    -7.86992126    -1.00816104     0.48496418    -0.73388595
O      -7.87616116     6.25902361    -3.98851423     0.21092617     1.77667448     0.19903966
O      -7.81049224     6.32870038    -7.85852324     0.63854974     1.64643150    -0.71564613
O      -4.04778517     4.31613524    -2.04184030     0.32759562     0.46837418     1.16279361
O      -4.04435967     4.43232136    -6.01875406     0.09776621     0.02467080     0.18356135
O      -7.83390294     4.49526178    -9.91067499    -0.05292451    -0.24729425    -0.99441855
O      -8.02695828     4.45245820    -5.95521171    -0.06356501    -0.49134818    -0.39923835
O      -7.86426772     8.69646654    -9.95539705    -1.49580153    -0.33619071     0.02985234
O      -7.99657837     8.59693473    -6.13795689     0.00957570     0.46320739     0.08289653
O     -11.58466338     8.73420278    -6.02574103    -0.91998690    -0.46698819    -0.02375597
O      -0.02050769     0.02873610    -5.99362237     2.63183605    -0.52155212    -0.36146523
O      -1.99183887     4.20109131    -4.20409804    -0.10696525    -0.85916361     0.73960901
O      -1.94745313     4.32037018    -7.89457924     0.21119292    -0.15431048    -0.40501826
O      -5.91526776     4.13860674    -4.05636638     1.00122405     0.45766817    -0.30185288
O      -5.97606791     4.47576600    -7.93880352     1.90286448     0.07341859    -0.28559644
O      -2.18341538     0.05712282    -4.15932967     0.65670926     0.89768547     1.40658708
O      -5.85971355     8.57619360    -7.97971013     0.11764622    -1.63847966     0.24639478
O      -5.86340073     0.38307137    -4.00445626     0.18827685    -0.15923993     0.97253395
O      -6.06637559     0.55383869    -8.21952552     1.12604287     0.12103143     1.23785170
