# total energy = -630.45634708 eV

CRYSTAL
PRIMVEC
        0.00285542     0.02004370    -7.95977623
       -7.82940539     0.00763210    -3.98158109
       -3.91729101     8.74642787     0.01461334
PRIMCOORD
56 1
Li     -3.85524660     2.16539053    -2.07866271    -0.09984676     0.21120205     0.29224080
Li     -3.97658401     2.29205761    -5.89567847    -0.10469439    -0.51173823    -0.64845590
Li     -7.80047638     2.29955402   -10.09877238     0.02438065    -0.68009834     0.65016570
Li     -7.86707558     2.20548051    -5.99675983     0.10665640     0.20143528     0.15639391
Li     -3.89792162     6.50440117    -1.89768313    -0.25470712    -0.17888943    -0.27861095
Li     -3.93482366     6.25063002    -5.81406806    -0.00842209     0.68790404    -0.19042881
Li     -7.79521961     6.63254946    -9.85459568    -0.48695528    -0.27308853    -0.13080498
Li     -7.84934908     6.34868282    -5.78462948    -0.37886854     0.07304321    -0.20748922
Ti     -1.85993235     2.23983417    -4.11651719     0.19080338     0.08003209    -0.15502225
Ti     -5.85513164     6.71542669    -7.93651869     0.10491007    -0.39304036     0.49781720
Ti     -7.82577281     4.44668405    -7.72038481     0.29609726    -0.28970415     1.24735254
Ti     -7.78101854     4.31876024    -3.66359904     0.41862570    -0.28824753     0.32828121
Ti     -3.83624718     4.38929993    -7.55201304    -0.32535249    -0.19703459    -4.21372226
Ti     -3.90112035     4.39717710    -3.71573029     0.17842322     0.13423309     0.27643083
Ti     -5.89792518     8.67325693    -2.15742722     0.68987555     0.40517741    -1.51855826
Ni     -5.83059458     2.46640086    -8.14654491    -0.59462057    -1.14327639     0.38300841
Ni     -6.01316324     2.25412679    -4.12526004     1.13726066    -0.19221332     0.90392691
Ni     -9.80488385     6.57914266    -7.82349791    -0.85026797    -0.21136060    -0.24285527
Ni     -9.79698025     6.40028533    -3.96695282    -0.56018921     0.39888117     1.19129875
Ni     -1.95532680     2.23136030    -7.99232885    -1.68739339    -0.02087274     0.18463462
Ni     -5.99190157     6.57590932    -4.02589351     1.13408920    -0.32721706     1.18728247
Ni     -6.00509274     8.67876417    -5.96427972     0.52564623     0.47246382     0.27017190
Mo     -9.75867791     8.74333147   -10.13605286    -2.22971339    -0.30059391    -0.77627889
Mo     -9.79112226     8.73422037    -6.26854001    -0.50082369     0.58309176    -0.00056177
O      -1.88857800     1.83505695    -2.10423411    -0.27580132     0.24469911     0.54045469
O      -1.95279795     1.85273692    -6.00884674    -0.27569571    -0.92443294    -1.08257697
O      -5.85030269     6.71977835    -1.99809902    -0.36387347     0.10998703     0.40301696
O      -5.97308666     6.72998837    -5.87794454    -0.11614944     1.15971585    -0.66081614
O      -5.83301226     2.09107058   -10.14259342     0.54389468    -0.52714372     0.30526811
O      -5.98753289     2.01361704    -5.98452806     0.17263110    -0.40205179    -0.38991967
O      -9.81806322     6.80885456    -9.80211575     0.57102349     1.12833714    -0.22575001
O      -9.89303647     6.88403178    -5.82497063     1.20479002    -1.03863557    -0.87583470
O      -3.69186671     2.44555349    -4.11014305    -1.65858627    -0.31326115     1.48854417
O      -3.98121522     2.48305621    -7.98091922     1.03931260     0.42674022    -0.02849362
O      -8.00486083     2.30874262    -4.02289375     1.37183515     1.03317190     0.09159305
O      -7.76410437     2.41170391    -8.10965878     0.31912308     0.51052639     0.99943413
O      -3.97271157     6.32724706    -4.02232789     0.46002491     0.16455092     0.79888325
O      -3.91463610     6.46806504    -7.78360890    -0.37980862    -0.77454405    -0.34118081
O      -7.92469219     6.23393984    -3.83700040     0.70015146     0.89961587    -0.59047398
O      -7.89507101     6.39273443    -7.91025877     0.73331326    -0.29800969     0.18237923
O      -3.81381937     4.45189448    -1.98564193     0.07663962    -0.17068302     0.46752114
O      -3.92683202     4.21394091    -5.88531002    -0.16036760     0.76588946     2.16875114
O      -7.95952337     4.22572314    -9.83992553     0.61101928     0.50243978    -1.50272144
O      -8.02743561     4.36957539    -5.89139105     0.58734718    -0.15502150    -1.81954352
O      -7.76888575     8.67099548    -1.96568559    -1.30588039     0.12715747    -0.33481970
O      -4.12710840     0.02682173    -5.87030073    -0.23879118    -0.33510068    -0.64581159
O      -3.86927855     8.56294949    -2.07286496     0.22791421     0.95620110     0.16578855
O      -7.60782202     0.13352626    -9.96551697     0.91931248    -0.61520672    -0.19476335
O      -1.91093167     4.24325179    -4.07390375    -0.23379345    -0.41789359     0.30960529
O      -9.77927277     4.55373792   -11.84655673    -0.18896775    -0.83032677    -0.23135083
O      -5.81883195     4.18699534    -3.96648196    -1.80845482    -0.26351540    -0.26795114
O      -5.83042435     4.51473914    -7.97832778    -0.48010353    -0.39610432     0.18561292
O      -1.94991616     0.13999689    -4.11084496     0.06083214     0.15307102     1.07587607
O      -6.05014297     8.53202544    -7.89223816     0.60999837    -0.30158514     0.02427358
O      -5.85951799     0.36308407    -4.03989075    -0.02996752    -0.14390846     0.93678903
O      -5.80693428     0.48628566    -8.08080562     0.31678670     1.27064735    -0.19305712
