# total energy = -630.74700840 eV

CRYSTAL
PRIMVEC
        0.00279571     0.02951795    -7.98606283
       -7.83802570     0.01298533    -3.99532603
       -3.92160916     8.71933433     0.00634407
PRIMCOORD
56 1
Li     -3.80143455     2.22831936    -1.91452167    -0.98818814     0.03907245    -0.08775750
Li     -4.04401780     2.30170500    -5.93197190     0.17384629    -0.20572445    -0.39670592
Li     -7.98604179     2.17039858    -9.95789622     0.75103364     0.22267030    -0.31189819
Li     -7.72085012     2.48074063    -5.88849784    -1.12367946     0.13996141    -0.28579262
Li     -4.01484369     6.66492876    -1.93469685     0.58993252    -0.66013988    -0.23272196
Li     -4.01595582     6.54323597    -5.65163097     1.20946312    -0.14798892    -1.04958148
Li     -7.97281250     6.74418484    -9.92824972     0.48357828    -0.57677851    -0.21085789
Li     -7.82023863     6.31945733    -5.86616139     0.09379032     0.66923937    -0.21082105
Ti     -2.05295644     2.11012243    -4.01575332    -0.13791789    -0.70866409    -0.38102317
Ti     -5.85912304     6.56884619    -7.89846393    -0.75845354     0.52456749    -0.14104543
Ti     -7.95692543     4.35535489    -7.83612710     0.72429229     0.30388135    -1.45168539
Ti     -7.84826501     4.49281947    -3.80107982     0.60486558    -0.47819073     2.66586966
Ti     -3.85758450     4.35294991    -7.72127985    -0.31649434    -1.03121567     0.51604512
Ti     -4.02991909     4.34000122    -3.77819796     0.52833961     0.68124466     1.21772777
Ti     -1.78104194     0.01807719    -1.98343113     0.53603705    -0.82368392     0.21241839
Ni     -5.91968091     2.31853550    -8.07588753     0.26671789     0.70416532    -0.11709137
Ni     -6.03291260     2.09684316    -3.98650920     0.36052971    -0.04473922     1.61392667
Ni     -9.77343779     6.70144932    -7.95718488    -0.11085846    -0.24838938     0.98959343
Ni     -9.85279609     6.40813268    -4.08973645    -0.06619714     0.47548313     0.46594935
Ni     -1.98418539     2.29911406    -8.01860218    -0.48471041    -0.85697045     0.82697857
Ni     -5.76739001     6.72005287    -3.87642966    -1.00014107    -0.27570285    -0.78099958
Ni     -1.83404235     0.05890391    -6.04302439    -1.12804475    -1.44348267     0.10319019
Mo     -5.92789456     0.04154478   -10.35700816     1.26739151    -0.42782426     0.84877772
Mo     -9.70285763     8.69872806    -6.25859987     1.75093904    -1.42013855     0.64305977
O      -1.94902298     1.90551756    -2.00717898     0.05149380     0.69509619    -0.01464704
O      -2.00817927     1.86160090    -6.05393996     0.21562448     0.05044506    -0.01727418
O      -5.97314147     6.83804970    -1.95367030     0.49353991    -0.37350446     0.09393209
O      -5.74164530     6.87508860    -5.93532146    -0.99267666     0.29848407    -0.36931607
O      -5.87802774     1.94816709   -10.06713500    -0.30315179     0.38240601    -0.45208542
O      -6.11990190     1.74116748    -5.75164499     1.34912566     1.36967871    -0.31509417
O      -9.86152810     6.84875804    -9.72939122    -0.04369006     0.82147642    -1.34308390
O      -9.82470149     6.75756154    -6.10642561     0.60975756     0.31910634     0.57459132
O      -3.98760616     2.30069071    -4.01058624    -0.31236664     0.16400372     0.28018536
O      -4.03980384     2.43995123    -8.01128285     1.06906483    -0.25011199     0.34894613
O      -7.94805946     2.43297248    -3.95891595     0.61832632     0.83154166    -0.05081285
O      -7.80365085     2.45029054    -8.00997806    -0.27123520    -0.75445563     0.04536937
O      -3.76458061     6.37282640    -3.89619490    -0.21049934    -0.63644459     0.49571962
O      -3.92333851     6.22903882    -7.98296221    -0.71944871     1.32103263    -0.30645929
O      -8.00572242     6.38958309    -3.96259957     0.61222605     0.43212214    -0.68993532
O      -7.76662628     6.31428800    -7.98842096    -0.36314722     0.68878485     0.64012959
O      -3.89583577     4.23237008    -1.99037807     0.40158081     0.02285533    -1.40893782
O      -3.81937609     4.26788267    -5.93135654    -0.57981203     0.09656822    -0.43142911
O      -7.86690546     4.63532520    -9.99251691     0.03630827    -0.84378454    -0.99694014
O      -8.02628154     4.49127677    -6.09029556     0.41712727    -0.53578969     1.23280548
O      -8.01484104     8.70436060   -10.07768397    -0.60276196     0.55492399     0.40138864
O      -3.97380074     0.07053035    -6.06735071    -1.24546942    -0.28402974     0.00992931
O      -3.87404504     8.56906675    -2.03635110    -0.94096728     0.13443762     0.24470445
O      -7.72708422     0.07587612    -9.98935925    -0.41919479     0.14160600    -0.12572534
O      -1.97984778     3.91188681    -4.21988804    -0.42092793     0.82503858     0.69679457
O      -9.77088219     4.56704107    -3.97722451    -0.58964766    -0.56120895    -0.54726902
O      -5.82536129     4.78165664    -3.99316753    -1.21426907     0.43450901    -0.35271368
O      -5.88222791     4.29734527    -8.04817183    -0.23662811     0.51035183     0.49706422
O      -1.99401489     0.04372065    -3.95135737     0.24091514     0.21289081     0.19966541
O      -5.93117316     8.46684744    -7.97054111     0.42493295    -0.35653451    -0.39746495
O      -9.85056458     8.32601771    -4.11922438    -0.31900554    -0.66368959    -0.28033125
O      -5.94941327     0.44708738    -7.95464156    -0.12471096     0.82778905    -1.96266407
