# total energy = -630.02933304 eV

CRYSTAL
PRIMVEC
        0.00279571     0.02951795    -7.98606283
       -7.83802570     0.01298533    -3.99532603
       -3.92160916     8.71933433     0.00634407
PRIMCOORD
56 1
Li     -3.88207844     2.25585804    -1.78357422     0.10763907    -0.05291567    -0.67055137
Li     -4.01311529     2.41506902    -5.88946704     0.06531420    -0.23481141    -0.79269712
Li     -7.97896947     2.36600001   -10.08433381     0.48980711    -0.03149069     0.54207034
Li     -7.95673328     2.32566533    -5.83914751     1.27593091     0.47253107    -0.23772792
Li     -3.87194401     6.68716584    -1.86404934    -0.64424733    -0.48814010    -0.64446426
Li     -3.75247916     6.21986320    -5.95538604    -0.46169827     0.18810640    -0.09366117
Li     -7.97707891     6.53041113    -9.93853132     0.57508449     0.08153373     0.08789079
Li     -7.96717494     6.22875170    -5.89127724     0.46669939     0.30786054    -0.06405401
Ti     -1.94131886     2.10060952    -4.08542583    -0.26606477     1.15108760     0.29573840
Ti     -5.91450707     6.58298905    -7.82762613     0.37274187    -0.03946472    -0.76563112
Ti     -7.81163319     4.35440500    -7.80534621    -0.32603820     0.26700766     1.02761492
Ti     -7.73772329     4.45546500    -3.71971215    -0.45474869    -0.65731570     0.32918151
Ti     -3.71659004     4.33720404    -7.82319640    -0.86987540    -0.69681583    -0.06269932
Ti     -3.85909807     4.35983040    -3.77963805    -0.25293848     0.26483613     0.64283240
Ti     -2.15506135     0.02665444    -2.05883927     0.84930480    -1.39727577    -0.00106654
Ni     -5.90764929     2.47738622    -8.12227357     0.31746160    -0.12977642     0.58684678
Ni     -5.88436574     2.22309653    -4.01182680    -0.16273508     0.55831942     0.13800506
Ni     -9.87823053     6.61241704    -7.94491650     0.32917729     0.23794556     0.39617570
Ni     -9.79273075     6.45290541    -4.20219315    -0.43011232    -0.17511491     1.48566795
Ni     -1.81728092     2.04460386    -7.84944725    -1.14573622     0.23228571    -0.79389630
Ni     -5.81881978     6.51003757    -3.94106410    -0.47273100     0.13966378     0.13129603
Ni     -6.00023691     8.57514503    -5.89122123     0.02332558     0.62798418    -0.65432084
Mo     -6.08917755     0.08031557   -10.18609648    -0.61123683     0.54913065     1.85881129
Mo     -5.88145022     0.08132299    -6.34823569     0.53147840     1.40691878    -2.39116893
O      -1.79782787     1.91439171    -1.87139348    -1.53165179    -0.54343797     0.00043455
O      -2.09819447     1.70602931    -5.96723115     0.57909641     0.45362585    -0.99040091
O      -5.90728497     6.72469639    -2.06477674     0.15710523     0.38130442    -0.10583874
O      -5.78265779     6.67283906    -5.85410749    -1.02055952     0.87200288    -0.81923111
O      -5.83307350     2.12477929   -10.02422441    -0.05475034    -0.57470254    -1.37210944
O      -6.03637117     2.04487344    -5.93138133     1.04045330    -0.94687360    -0.03667482
O      -9.81508196     6.96379670    -9.87831036    -0.39321770     0.50925004     0.57447977
O      -9.75536981     6.87958703    -6.03645116    -0.22562839    -0.95898265    -0.50325389
O      -3.88224681     2.37282511    -4.02271384    -0.66751232     0.38026891     0.58148644
O      -3.71272500     2.43830355    -7.92093273    -0.64113453    -0.27469636    -0.34716623
O      -7.81334091     2.47854125    -3.96546198    -0.25776311    -0.76165863     0.38410508
O      -7.90757022     2.43894741    -8.09679836     0.83035510    -0.53773412     0.25084868
O      -3.93603567     6.38788943    -4.09121854     0.80345233    -0.92386875     0.81200628
O      -3.96326084     6.26333503    -8.02092471    -0.02153617     1.45801641     0.49539749
O      -7.94284035     6.35698618    -3.90491404     1.02964154     0.18097472    -0.81648318
O      -7.90516871     6.32742949    -7.95569633     0.30838576    -0.32053078     0.20716798
O      -4.00304146     4.43430901    -2.03102121     0.52801037    -0.26467840    -0.42441984
O      -3.55598707     4.36187573    -6.07207858    -1.18775076     0.09434934     1.06087112
O      -8.07010339     4.32387957    -9.94756336     0.65379257     0.44857365    -0.71020291
O      -7.77581872     4.32778770    -6.00127881    -0.74944249     0.22013236    -0.95952877
O      -7.81585801     8.69306635    -2.07414764    -2.25824750     0.59492645     0.11510512
O      -4.08141638     0.04737480    -6.12446701     0.05641253    -0.45818205     0.47539953
O     -11.57544654     8.59955029    -6.08664102    -0.59325055     0.47926194     0.21434759
O      -7.86107220     0.21917362    -9.90643511     1.55175130    -0.81106710    -1.00415020
O      -1.95440644     4.11906972    -4.01836763    -0.55361186     0.08723304     0.54417444
O      -9.75394886     4.60806794    -4.11739093     1.47508684     0.16677847    -0.83038215
O      -5.89428960     4.21381149    -4.12154046     1.10150194     0.09183386     0.41121577
O      -5.86370611     4.34893771    -8.02411131     0.06059871     0.68129631     0.04675903
O      -1.97029833     0.26104800    -3.99507810     0.12189271    -1.21419428     0.85758252
O      -6.08652591     8.35746371    -8.08084663     0.97855853     0.10624717     1.03746752
O      -5.86197800     0.09244435    -3.96734261    -0.28414985     0.43862624    -0.93743796
O      -5.80442452     0.72538631    -8.21646170    -0.18218931    -1.94419701     1.58120687
