# total energy = -630.72717753 eV

CRYSTAL
PRIMVEC
        0.00279571     0.02951795    -7.98606283
       -7.83802570     0.01298533    -3.99532603
       -3.92160916     8.71933433     0.00634407
PRIMCOORD
56 1
Li     -4.01420244     2.29952108    -1.83007751    -0.05783522    -0.38500084    -0.17689859
Li     -4.19430388     2.44412572    -5.94891665     0.67822143     0.16737325    -0.27231489
Li     -7.59572201     2.49675663    -9.87422644    -0.60453423    -0.36039780     0.00883026
Li     -7.98543830     2.18562172    -5.86316816     0.29314753     0.20655439     0.00511327
Li     -3.86189148     6.76284631    -2.25544285    -0.19819761     0.02839561     1.24136150
Li     -3.90660975     6.39443539    -5.88315095    -0.23702445     0.30430144    -0.13930301
Li     -7.91839450     6.65775058    -9.90590548     1.08491986    -0.36207378    -0.23480039
Li     -7.91597788     6.39495818    -5.99312096     0.15420728     0.24049075     0.58948598
Ti     -2.03852001     2.25843164    -4.06283168     1.76219284     0.01377701    -0.80361317
Ti     -5.81953208     6.68465949    -7.96041885     0.49552304     0.28047862    -0.23045984
Ti     -7.79654248     4.40967888    -7.64322098     0.77396393    -1.11622149    -0.48544719
Ti     -7.85382906     4.36576879    -3.73341578     0.38341800     0.52256100     0.12605375
Ti     -3.89030768     4.42974348    -7.85392924    -0.61931307    -0.10561111     2.41803415
Ti     -4.07475173     4.32482744    -3.65432521     0.21351716     1.48306460    -1.36129373
Ti     -1.90171951     0.06807530    -2.14126944    -0.02499838    -0.67116339     0.23206053
Ni     -5.94362636     2.13437440    -7.86809284     0.32649840     0.09782900     0.45478767
Ni     -5.94501515     2.18486049    -4.01123639     0.36945552     0.17208002     0.23690196
Ni     -9.81380424     6.27486695    -8.13730533    -0.12376579    -0.64590454     0.95739591
Ni     -9.72944141     6.46015990    -4.04820982    -0.73497865     0.67396180     1.01980088
Ni     -1.98819722     2.30067117    -7.96895454    -0.24034647    -0.22883548     0.73158098
Ni     -5.90527507     6.69445181    -4.01651740    -0.14421180    -0.33114983     0.40555209
Ni     -1.84612802     0.11814663    -6.03205601    -0.99639627    -0.39296836    -0.22090265
Mo     -9.81030204     8.60241355   -10.26908257    -0.09810437     2.01843790     0.00993271
Mo     -5.82103064     0.07404668    -6.36302716    -0.06216597    -0.47606043    -0.02684202
O      -2.09791944     1.97927927    -1.97224078     0.39664362    -0.18215296    -0.09784059
O      -1.93757317     1.97577707    -6.03148564     0.40917979     0.21325887    -0.34538524
O      -5.82706399     6.80976924    -2.06225389    -0.49233751     0.57804999     0.05394519
O      -6.01297291     6.97096218    -5.85733590     0.73688367     0.51392171    -1.20380817
O      -5.86587077     1.79541764    -9.63600684    -0.04169153    -0.53897528    -1.33068281
O      -6.06651427     1.96482590    -5.96737108     0.43931256     0.51190840    -0.44016254
O      -9.73811245     6.71837425   -10.08369187    -0.68467880    -0.72104327    -0.77593872
O      -9.79066176     6.93120614    -5.79616348     0.02290255    -0.10771830    -1.22800496
O      -3.86601518     2.44808538    -3.99005052    -1.50841621    -0.77719259    -0.08578216
O      -4.08105984     2.45619175    -7.96290990     0.51222074     0.59508842     0.79603915
O      -7.83202692     2.40033749    -3.84363305    -0.67064225    -0.00086676    -0.77781390
O      -7.81854421     2.42682478    -7.88143780    -0.49571596     0.22746558    -0.51831932
O      -4.00302960     6.22026470    -3.97220786     0.48857847     0.53684590    -0.58468770
O      -3.91577325     6.53791005    -8.06002302     0.20520490    -0.97062400     0.41117226
O      -7.79833921     6.37766848    -3.94320201    -0.12388220    -0.65592890    -0.30776384
O      -7.88801331     6.25661068    -7.95638669    -0.28590489     1.25849879    -0.33899356
O      -4.06562454     4.33709948    -1.92220631     0.13067316     0.02239868     0.98374209
O      -3.86927776     4.54165626    -6.03853409     0.08648657    -0.96220157    -1.17200150
O      -7.63023917     4.41075555    -9.97818908    -0.43017739    -0.02905903     0.28995761
O      -8.06657572     4.34545309    -5.93552470     0.51612210     0.17284801     0.88221632
O      -7.92184040     8.64206988    -2.05220904    -0.40045692     0.01849707    -0.26727302
O      -4.12195149     0.30680861    -6.10339742     0.37044188    -0.23497494    -0.10101090
O      -7.83067722     0.15563246    -6.13849036    -0.73336551    -0.60682647    -0.11635277
O     -11.61286887     8.65956932    -9.98253139     0.57658807    -0.27129264    -0.06983995
O      -1.94885188     4.33423133    -4.02930793    -0.70434645    -0.31719518    -0.21000821
O      -1.99185816     4.42624718    -0.01535852     1.09329099    -0.37317708    -0.08771904
O      -5.85599995     4.07185307    -4.09108631    -1.43374640    -0.28319967    -0.12753438
O      -5.86789847     4.81437757    -7.64087700    -0.31872143    -0.74342160    -1.00154718
O      -2.05681416     0.37357585    -4.19475990     0.31518706     0.05461615     1.93576129
O      -5.92534950     8.56841947    -8.03788588     0.18044622     0.45125011     0.14932898
O      -5.94170486     0.25300967    -4.10313537     0.06851870     0.59632040     0.50464628
O      -9.72824874     8.04720220    -8.08628411    -0.50923053     1.29877785     0.50419332
