# total energy = -631.14123905 eV

CRYSTAL
PRIMVEC
        0.00279571     0.02951795    -7.98606283
       -7.83802570     0.01298533    -3.99532603
       -3.92160916     8.71933433     0.00634407
PRIMCOORD
56 1
Li     -3.97505920     2.13751845    -2.00395419    -0.26447126     0.18382489     0.45519008
Li     -3.89345068     2.29682108    -5.96535121    -0.25934613     0.11352516     0.07078544
Li     -7.81420345     2.24414190   -10.02586912    -0.64552980    -0.05268114     0.14821690
Li     -7.98680428     2.37898496    -5.88014410     0.28627603    -0.26852604     0.06859833
Li     -3.96494107     6.69196471    -1.87706778     0.54093160    -0.63616785    -0.52473483
Li     -3.89289420     6.67669702    -5.91809242    -0.27315659    -0.20068649     0.14339695
Li     -7.79393058     6.46993220    -9.92913444    -0.58958361    -0.11320961    -0.33061182
Li     -7.91039209     6.49271956    -5.85191854    -0.14995219    -0.21564018    -0.59475554
Ti     -2.00253828     2.22870920    -3.96282516    -0.55744007    -0.29720619    -1.07264789
Ti     -5.86640391     6.65624502    -7.92945346    -1.10127425    -0.67331814     0.42928268
Ti     -7.73338024     4.30776290    -7.80272407     0.34189819     1.11093405    -0.88482034
Ti     -7.91947037     4.33959199    -3.78152170     0.14912245     0.40327676     0.48533147
Ti     -3.84494294     4.31686001    -7.73729559    -0.74398960     0.17365393    -1.25725409
Ti     -3.97343302     4.45201289    -3.65831179    -0.39075142    -0.06219984     0.43431142
Ti     -5.64040081     8.66986594    -2.00552977    -0.76470777    -0.35562375    -0.82682284
Ni     -5.97554664     2.04916975    -8.04295389     0.52500830     0.23861823     1.39261518
Ni     -5.90337867     2.38139253    -4.03541532    -0.21807019    -0.37110212    -0.15077688
Ni     -9.76053306     6.40054661    -8.18603527    -0.21387080    -0.13701351     1.47906462
Ni     -9.91701163     6.58001081    -3.96081347     1.08668835     0.41568501     0.38763213
Ni     -2.08576347     2.03537650    -7.89093966     0.28486517     0.25130345    -0.89964833
Ni     -6.02386996     6.66720190    -4.10398189     0.71935156    -0.33680772     1.15141721
Ni     -1.86168011     0.04070539    -5.89751170    -0.15103486    -0.88834643    -0.52896087
Mo     -5.84266820     0.08016706   -10.34922702    -0.56044458    -1.29603017    -0.57644765
Mo     -5.69769161     0.09627987    -6.30347805     0.42776711     0.11499479     1.27064770
O      -2.13424914     1.75337283    -2.11362370     0.60531453     2.38756930     0.89397751
O      -1.97171749     1.80737139    -5.96199028     0.50894778     1.16617394     0.53478487
O      -5.99729085     6.78112077    -2.05684110     1.00551266     0.52118964     0.39009901
O      -5.92263367     6.94242137    -5.97487668     0.16059818    -0.33802318     0.11495791
O      -6.00622813     1.94294734    -9.90782184     1.03801450     0.87814166     0.41837169
O      -5.90811108     2.01244821    -6.03128243    -0.47709927    -0.08798206    -0.97309628
O      -9.83853154     6.81433559   -10.05413799     0.50590735    -0.05255583    -0.88031747
O      -9.84125087     6.95118723    -5.82059035    -0.09320881     0.31547666     0.17528922
O      -3.91388761     2.41689316    -4.01385701    -0.55105833     0.88953031     0.30711060
O      -4.11971663     2.38693957    -7.93342136     0.07267336    -0.63487595    -0.45829545
O      -7.88470612     2.40406507    -3.94540528     0.63548027    -0.16616017    -0.61077772
O      -7.88707920     2.37566410    -8.00639693     0.23648126    -0.23881132     0.38424233
O      -3.94042900     6.31173621    -4.02316990     0.16035176     0.28835272     0.15749807
O      -3.97431255     6.36034141    -7.87866841     0.68102038     0.81956357    -0.74070449
O      -7.93056237     6.35546369    -3.99465763    -0.61982421    -0.41790264     0.09476551
O      -7.81686248     6.33007744    -7.94317710    -0.57266523     0.33552134    -0.59902345
O      -3.97371941     4.42896659    -1.87974365     0.12941582    -0.02767810    -1.47155013
O      -3.85977037     4.41303625    -6.02808783    -0.16587624    -0.19577797     1.66437787
O      -7.94023188     4.40258873   -10.00054400    -0.26146759     0.16371025     0.22595316
O      -8.06183868     4.46903564    -6.10988204     0.38949305    -0.46188037     1.77223232
O      -4.07975191     0.08395211   -10.03726732    -0.37629961    -0.35218289     0.23579989
O      -3.94727019     0.17160188    -5.93291433    -1.14993543    -0.51893312    -0.84924837
O      -7.78581747     0.10210403    -5.93210787     0.74932929    -0.37256661    -0.49469533
O     -11.58373646     8.71271334    -9.89583601    -0.68819981    -0.00973703    -0.32009697
O      -1.96404875     4.25117671    -4.02026038    -0.68694277    -0.07562271    -0.16182585
O      -2.02949052     3.89605646    -8.09025992     0.79855432     0.06565089     0.31113112
O      -5.94087404     4.32625847    -3.94688729     0.09984681    -0.65400830    -0.62317118
O      -5.87516446     4.73443646    -7.98074128     0.00287696    -0.11234189     0.10605407
O      -2.05671510     0.18675836    -3.98680214     0.43110701     0.08960567     0.05329695
O      -5.94229679     8.71130882    -8.02398093     0.13980933    -0.30528233     0.24769479
O      -5.88768702     0.47705070    -4.12893618    -0.14439118    -0.06609386     0.14321235
O      -9.75753107     8.29135183    -8.01549068     0.03598192    -0.29207264    -0.41087844
