# total energy = -630.73688035 eV

CRYSTAL
PRIMVEC
        0.00285542     0.02004370    -7.95977623
       -7.82940539     0.00763210    -3.98158109
       -3.91729101     8.74642787     0.01461334
PRIMCOORD
56 1
Li     -3.98264565     2.10067519    -2.02862666     0.52917699     0.13205417     0.51933146
Li     -3.90874865     2.12793452    -5.99254169    -0.28623105     0.07074520    -0.27716175
Li     -7.78793855     2.13502816    -9.97562398    -0.19550804     0.22431237    -0.06590639
Li     -7.94688606     2.52843303    -5.73544998     0.08296171    -0.31663111    -1.08447951
Li     -3.97354838     6.43480601    -1.97114094     0.40613966     0.12551400     0.12867824
Li     -3.94211734     6.31362665    -5.97923950     0.20929549     0.52733918     0.80063152
Li     -7.75530968     6.58420851    -9.85146443    -0.67587759     0.07333491    -0.42106084
Li     -7.94724742     6.57131165    -5.82973966     0.16082321    -0.17135016    -0.17359121
Ti     -2.00702955     2.24929904    -4.04557543     0.65527505    -0.36524197    -0.21454478
Ti     -5.83863114     6.52921887    -7.86718616     0.58818448     1.22710951    -0.16119084
Ti     -7.79421260     4.41056086    -7.70356565    -1.03932656    -0.24263326     0.62404270
Ti     -7.74476194     4.48494456    -3.68959287    -0.62738164    -0.89921556    -0.99560866
Ti     -3.74288929     4.31727530    -7.72752553     0.38727183    -0.21788042    -0.15165625
Ti     -4.01974621     4.37303204    -3.68416147     0.12516390    -0.10009644    -1.41474120
Ti     -5.78874272     8.69154693    -1.95162330     0.75438576     0.56620393    -0.74447675
Ni     -5.90309101     2.43700641    -7.97513693     0.13771164    -0.29223041    -0.00533627
Ni     -5.94300731     2.13321453    -4.10619145     0.10442925     0.48677892    -0.40327337
Ni     -9.85547082     6.59035901    -8.06681704     0.10329687    -0.38234418     0.66516674
Ni     -9.80498906     6.59836988    -3.94302869     0.16062075    -0.43789959    -0.57080461
Ni     -1.98749453     2.08607257    -7.90594885     0.36558611     0.48572003    -0.56942844
Ni     -5.85273128     6.69225157    -3.89226822    -0.19226143    -0.00245984    -0.87548236
Ni     -5.81315428     8.70385660    -5.92170438     0.12399214     0.48449579     0.44177937
Mo     -5.85267067     0.07689955   -10.20639288    -1.64623453    -0.97866259    -1.20556911
Mo     -9.79022321     8.70771738    -6.37743621    -1.06062634    -0.96938542     1.93330556
O      -1.99255570     1.85134813    -1.85222812    -0.37394275     0.44188319    -0.47794262
O      -1.91020908     1.82148775    -5.99009892    -0.40412456    -0.12924051     0.22848702
O      -5.88689773     6.70280059    -1.95295459    -0.02228276     0.31132851     0.48850189
O      -5.86514115     6.89770810    -5.85487247    -0.19813922    -0.82338524    -0.32019966
O      -5.81785107     2.01921730   -10.05863144    -0.55324817     0.16511684     0.21821199
O      -5.91234595     1.98333229    -6.05711157    -0.39007961     0.02624667     0.95373505
O      -9.74033000     6.91505692   -10.02267947    -0.42789480    -1.04046577     1.45201944
O      -9.88339998     6.82345401    -6.14461472    -0.09005805    -0.58269822     0.65453478
O      -3.91289687     2.40647994    -4.16174309    -0.13251544    -0.22860285     1.48033847
O      -3.95835910     2.37612906    -7.91797070     0.19022184     0.47361598    -0.23113107
O      -7.89114930     2.37122721    -3.98263354     0.12960934     0.27261193     0.75324369
O      -7.92926510     2.40980976    -7.91229834     0.87138533     0.92174270    -0.05952051
O      -3.90277264     6.27750821    -3.95238214    -0.38592825     0.61220797    -0.40990387
O      -3.90742581     6.44983033    -7.87697247    -0.53535607    -0.77510625    -0.50361231
O      -7.87637022     6.41785192    -3.90377682     0.33811211    -0.34194073     0.09178760
O      -7.90823005     6.34182168    -7.98802403     0.79830683     0.01442601     0.32076852
O      -4.10912201     4.40955490    -1.95336260     0.09965732    -0.16711431     0.81486854
O      -3.90427189     4.39616794    -5.97745239     0.27031199     0.12022997    -0.13924296
O      -7.89948438     4.26910565    -9.93173644    -0.03340646     0.35876404     1.04580974
O      -8.00588178     4.45731745    -5.94065456     0.81429533    -0.06943049    -1.00696719
O      -7.90486511     8.68431349    -2.06128020    -1.01183541     0.46406744     0.30000346
O      -8.07524837     8.58989067    -5.96217100     0.86585391     0.72428352    -0.57177761
O      -3.90713238     8.64727375    -2.09442796     0.33806999    -0.10115876     0.29452778
O     -11.68365292     8.71946444    -9.91849040     2.23351363     0.34014141    -0.30438744
O      -2.01662344     4.24145610    -3.93580476    -0.22902031    -1.19771215    -0.13405539
O      -9.75373607     4.35212831    -4.17916685    -0.00257905     0.33753183     1.06004620
O      -5.93777720     4.03681715    -4.05589865     0.47249664     0.20140291    -0.08721843
O      -5.80015928     4.48125762    -7.80712845    -1.45639849     0.50744053    -0.55544052
O      -1.94846817     0.21804257    -3.91310378    -0.41352077     0.43105891    -0.15687395
O      -5.85886471     8.57635914    -7.91074834    -0.30813213    -1.35538104    -0.18733555
O      -5.95010815     0.22084169    -4.15349118     0.03009512     0.53164929     1.27345685
O      -5.99578951     0.59658733    -8.04531466     0.59935843     0.27739410    -2.15951737
