# total energy = -630.79875375 eV

CRYSTAL
PRIMVEC
        0.00279571     0.02951795    -7.98606283
       -7.83802570     0.01298533    -3.99532603
       -3.92160916     8.71933433     0.00634407
PRIMCOORD
56 1
Li     -3.97852339     2.40025886    -1.89577831    -0.07983637     0.00367884    -0.08962541
Li     -4.03180923     2.29293979    -5.90832163     0.50386992    -0.04203745    -0.45283343
Li     -7.79348171     1.98709695    -9.84309609    -0.01869303     0.45751557    -0.46644940
Li     -7.88724799     2.40164589    -5.96014926     0.21799014     0.18909722     0.07192772
Li     -3.87411119     6.50468124    -1.95870870    -0.13460470    -0.18058316    -0.50470862
Li     -3.81815677     6.42809471    -5.94823829    -0.39395617     0.10442205     0.63962938
Li     -7.92975599     6.37330732    -9.89486090     0.22997419     0.36448365    -0.09283135
Li     -7.83105305     6.27040278    -5.85552315    -0.10533071     0.19270332    -0.32285373
Ti     -1.95792474     2.37748785    -4.04434205    -0.04010146     1.50238725    -0.26224983
Ti     -5.68809461     6.86296539    -7.96514649    -1.08104487    -0.75245712    -0.29106910
Ti     -7.68746145     4.54295439    -7.84399435     0.42180943    -0.63765809     1.11460969
Ti     -7.94246784     4.30109761    -3.73252516     0.69497595     0.26619615     0.25725561
Ti     -3.81484776     4.40300765    -7.70759121    -1.00003706    -0.47403886    -1.25280020
Ti     -4.16628124     4.36347396    -3.73770269     1.39334011     0.86882581     0.36221485
Ti     -1.86690129     0.10254102    -2.25579105     0.47049971    -2.03431672     0.40728721
Ni     -5.97891739     2.12044955    -7.92912617     2.01026632    -0.09946358    -0.90140354
Ni     -5.92430581     2.24251552    -4.02507779    -0.08284049     0.01264157     0.48683599
Ni     -9.85449325     6.38639434    -7.91758971    -0.36062590     0.19823615    -0.58379892
Ni     -9.73980738     6.59222068    -4.02695679    -0.56553093    -0.10187156     1.56268322
Ni     -2.00998958     2.15973263    -7.99345315     0.46940123     0.15081616     0.48274627
Ni     -5.95305772     6.55972443    -4.01847490     0.31071856     0.20146343     0.54920025
Ni     -1.94573693     0.03099529    -5.95283628    -0.50303861    -0.04157242     0.04948463
Mo     -9.82019673     8.67161084   -10.34925075     1.04080434    -0.48457889     0.73538310
Mo     -5.82467729     0.04826938    -6.23517053     1.99384769    -1.63607594    -3.02986296
O      -1.93887629     1.94933625    -2.00338243    -0.62334287     0.31988090    -0.20835116
O      -1.95985437     1.94002483    -5.95296947     0.03745069    -0.74232913     0.02877236
O      -5.94666157     6.84273663    -1.97501329     0.01863407     0.28964428     0.23865126
O      -5.85442051     6.80918533    -5.94235465    -0.27163627     1.14590247     0.10013371
O      -5.83094634     1.91967295    -9.76967196    -0.90935416    -1.22053052    -0.61216969
O      -5.88233387     1.88806902    -6.13482477    -0.94027784     2.12140749     1.39775659
O      -9.79778631     6.70844555   -10.04225061    -0.51062694     0.57860985    -0.70091254
O      -9.75426654     6.85029765    -5.83417335    -0.16970001    -0.41781105     0.18945936
O      -4.03898389     2.41775587    -3.97922820     1.55307481    -0.32854094    -0.04061886
O      -3.97423170     2.51172831    -7.99243765    -0.64402572    -0.97629355     0.52544897
O      -7.79727081     2.43746002    -4.02566160    -0.36747991    -1.77923693     0.02712494
O      -7.78292689     2.53569233    -7.94123611    -1.36346607    -1.38713800    -0.51764075
O      -4.02231520     6.29008536    -3.90185441     0.29627157     0.25289546    -0.63544836
O      -3.84777767     6.36803872    -8.05673917     0.49471830     1.25537888     0.77486664
O      -7.91298825     6.22235239    -3.93046178     1.08207576     0.97305873    -0.50085474
O      -7.97371345     6.40825938    -7.85307908     0.71244761    -0.22271572    -0.67956970
O      -4.00804825     4.41477244    -1.99818636     0.45526276    -0.21769052     0.56186763
O      -3.87806523     4.40977231    -5.97144555    -0.11426070     0.07482769     0.77745362
O      -8.08599502     4.31807237    -9.96334912     0.51319484     0.36634063     1.09138353
O      -7.95235786     4.31627246    -6.06989904     0.52100530     0.55692900    -0.24551276
O      -8.00515375     8.56467776   -10.08702959    -0.33104004     0.92291140    -0.11396608
O      -3.97707658     0.07938224    -6.24180342    -1.07570113     0.18142740     0.96412345
O      -3.90610883     8.62060107    -2.16079474    -0.16673555     0.67624421     0.19503879
O     -11.65578503     8.67720405    -9.98414042     0.80937467     0.20674910    -0.14542980
O      -1.99804079     4.29963249    -3.97166620    -0.61684906    -0.37965932    -0.14318590
O      -1.95656700     4.03716691    -0.08181720    -0.90214186    -0.20556520    -0.25382934
O      -5.96557956     4.11011508    -3.87055451    -1.41258434     0.09916356    -0.77348922
O      -5.80716938     4.82290172    -7.95046212    -0.33182839     0.34491909    -0.11554078
O      -2.05000261     0.36993380    -4.04767788     0.03968803    -0.33070871    -0.38480561
O      -1.88777373     0.05354472    -7.90976399     0.21058537    -0.57461723    -0.50507012
O      -5.86598047     0.35980704    -4.20213354    -0.42127784     0.28242321     1.27975485
O      -9.73746207     8.23195506    -8.01510251    -0.95012925    -0.26487591     0.01064422
