# total energy = -630.59152480 eV

CRYSTAL
PRIMVEC
        0.00279571     0.02951795    -7.98606283
       -7.83802570     0.01298533    -3.99532603
       -3.92160916     8.71933433     0.00634407
PRIMCOORD
56 1
Li     -3.89576362     2.04036053    -1.73161285    -0.03475828     0.10406016    -0.96966802
Li     -3.91972285     2.26528185    -5.82408632    -0.21629031     0.01496213    -0.48251425
Li     -7.87793223     2.32891760   -10.02449499     0.12916349     0.17781492    -0.36916911
Li     -7.67798912     2.15480751    -5.82909084    -0.65876285    -0.02862482    -0.41977862
Li     -3.93824160     6.63926203    -1.98786436     0.12203048    -0.17318420     0.30103313
Li     -4.07443210     6.58756432    -5.86560963     0.40389249    -0.35007562    -0.38514195
Li     -7.74806284     6.39480820   -10.03311672    -0.33211310     0.19560973     0.32414339
Li     -7.97927869     6.48355694    -5.97771074     0.12465459    -0.36037355     0.45899843
Ti     -1.89580883     2.31613539    -3.95159768    -1.14084613     0.44075787    -0.52508277
Ti     -5.91700013     6.84754538    -7.85661488     1.20289751    -0.56401483    -0.39337005
Ti     -7.60748989     4.32521721    -7.79300712    -0.30535274     0.50041400     0.07406841
Ti     -7.93184462     4.40403226    -3.83585778     0.46429512    -0.11017729    -0.47860645
Ti     -3.88022315     4.36563242    -7.71329440     0.15804144     0.84031174    -0.93598307
Ti     -4.04943526     4.51045583    -3.66702095     0.40732064    -1.18301178     0.18586880
Ti     -6.01060761     8.69248298    -2.23637607    -0.40304239    -0.07623483     0.90025374
Ni     -5.84454874     2.10749454    -7.86451346    -0.23138650     0.06813108    -1.19708366
Ni     -5.81803143     2.30439286    -4.08429887    -0.48948358    -0.13042962     0.36939345
Ni     -9.68802223     6.35369416    -8.10951224    -1.59831617    -0.32946159    -0.05786650
Ni     -9.83599384     6.76233640    -3.92862812    -0.12695258    -0.40055323    -0.80614400
Ni     -1.94588209     2.14588220    -8.02814042     0.33965883    -0.40792167     0.41701207
Ni     -5.91554310     6.64637289    -3.96854663    -0.56824077    -0.19027298    -0.01506658
Ni     -2.11086966     0.07223237    -5.94187163    -0.19214274    -0.28414861     0.07273112
Mo     -9.92809968     8.74106542   -10.26040068     0.75067606    -0.40227359    -0.97228411
Mo     -9.77967625     8.62219387    -6.34187451    -1.71658201     1.37827961     0.88765005
O      -1.75984868     1.86633100    -2.05498995    -1.05214343     0.52527493     0.44712581
O      -2.09014834     1.89158081    -6.00432760     1.02216768     0.08454242     0.23466531
O      -5.83360842     6.87481551    -1.99013442     0.20930651    -1.60355204     0.27639597
O      -6.12812051     6.91814754    -5.81510429     1.00159179     0.19362093    -1.69537620
O      -5.78204404     1.89101590    -9.84455861    -0.61905783    -0.72481028     0.52955733
O      -5.85440368     1.92451843    -6.04300367    -0.08474909    -0.03000211     0.34178996
O      -9.83651622     6.80204548   -10.05378750     0.63768289    -0.73627321    -0.08531085
O      -9.86348450     6.76526030    -5.91947703     0.76785268    -0.11519318     1.00273677
O      -3.89277501     2.45218091    -3.89922773     0.10476773     0.32375789     0.09365941
O      -4.01524212     2.40591653    -7.92535478     0.42138126     0.21940113     0.41854454
O      -7.70628267     2.44155562    -4.03763141    -0.22729059    -0.58684042     0.65905040
O      -7.81311541     2.42142317    -8.12084955     0.63268895    -0.83523765     0.54040939
O      -3.96892605     6.39063232    -4.06300205     0.47435915    -0.02201587     0.80807899
O      -3.93112292     6.53160864    -7.88173490    -0.71009519    -0.35740008     0.03656313
O      -7.86935018     6.37208427    -3.93524875    -0.08170928    -0.26539571    -0.53086184
O      -7.84222516     6.26860727    -8.04680098     0.51783088     0.36997650     0.38029729
O      -3.77340383     4.64996440    -1.92881511    -0.63905859    -0.34122822    -0.41084747
O      -3.93562334     4.54506861    -5.98274333     0.38085726    -0.45555432     0.21129953
O      -7.88176614     4.35150236   -10.07640892    -0.14237259     0.11903160     1.24935062
O      -7.89978948     4.27200786    -6.05986932     0.45525569     0.44887919    -0.16655007
O      -7.86946462     8.50292911    -2.10241519    -0.33016564     1.40701044     0.14765616
O      -4.10818322     0.05100764    -5.99750316     0.35697512    -0.17103496     0.21205227
O     -11.65288150     8.67796601    -5.93885385     0.94849006     0.47391376    -1.13962815
O      -3.82184261     8.51528512    -6.03924149    -0.24299024     1.45102841     0.44315537
O      -1.96027703     4.18092970    -4.02460760     0.19042981     1.11224392    -0.22737005
O      -1.94039844     4.00394026    -0.15981882    -0.98418357    -0.29574663     0.64119490
O      -5.90498156     4.29549981    -4.02574763     0.30011265    -0.50200878     0.04616682
O      -5.80351446     4.72241122    -8.02660634     0.20425330     0.23933414     0.11290351
O      -1.99666636     0.21316407    -4.02718384     0.34097248     0.70075738    -1.23888355
O      -5.96890487     8.72126330    -7.94385916     0.06564096    -0.34420090     0.24964793
O      -5.99133834     0.24007905    -4.11018228     0.65912407     0.74701869     1.41459146
O      -9.61672501     8.19670869    -8.09249466    -0.52591218     0.05035845    -1.00455390
