# total energy = -630.23916618 eV

CRYSTAL
PRIMVEC
        0.00285542     0.02004370    -7.95977623
       -7.82940539     0.00763210    -3.98158109
       -3.91729101     8.74642787     0.01461334
PRIMCOORD
56 1
Li     -3.98995876     2.10843739    -1.92586946     0.58877956    -0.00591055    -0.14357222
Li     -3.90701078     2.02080228    -5.93203041    -1.04518030     0.25948239    -0.79114719
Li     -7.82841681     2.35787155    -9.74945155     0.60633590    -0.05942969    -1.46626975
Li     -7.69763277     2.33990860    -5.92617979    -0.53596077    -0.12985219    -0.07058021
Li     -3.93183477     6.38261234    -1.88313263     0.01948897    -0.13137731    -0.30068387
Li     -4.02189361     6.15015607    -5.77184820     0.21888672     0.37993815    -0.72784210
Li     -7.87452601     6.51839034    -9.96548145     0.23084625    -0.21769850     0.35214110
Li     -7.90898591     6.55627448    -6.02126374     0.08040001     0.09918104     0.78723798
Ti     -2.01341640     2.14481753    -4.15927320    -0.41207491     0.91812675     1.40703285
Ti     -5.86334431     6.77509305    -7.90727422     0.44838495    -1.63415766    -0.05159873
Ti     -7.77951796     4.41634001    -7.67572946    -0.75154679     0.16572056     0.29285224
Ti     -7.76003567     4.36320069    -3.74340682    -0.67377392     0.22339552     0.02606700
Ti     -3.77941619     4.36575906    -7.69135797    -0.59692052    -0.69321710    -0.20611095
Ti     -3.95291923     4.31651128    -3.73002921    -0.26698218     0.28962746    -1.31727453
Ti     -6.01931459     8.69121965    -2.09278674    -0.32066330     1.41451447     0.30482305
Ni     -5.83674506     2.47836951    -8.09059905    -0.13817657     0.23474327     0.86647885
Ni     -5.84219099     2.18802517    -4.01675045    -0.85960470    -1.35546492     0.19521018
Ni     -9.87681040     6.47398715    -7.86386333     0.84226391     0.53253190    -0.48771150
Ni     -9.73837421     6.61568016    -4.03675302    -0.29877387    -0.77533728     0.46865072
Ni     -1.94104452     2.10512431    -8.10758213    -0.31553823     0.32601069     0.65748433
Ni     -5.78845679     6.77136440    -4.04063186    -0.86823252    -0.68161435     1.25921369
Ni     -5.89571276     8.72723596    -5.93975963    -0.24907140     0.71089510    -0.06887237
Mo     -9.91334266     8.62237809    -9.97265791     1.08734516     1.24422923    -1.10004300
Mo     -9.88434426     8.74491184    -6.35228684    -0.18060298    -0.09573442     0.92746100
O      -1.92528169     1.88412276    -2.01607071    -0.08505191     0.33033533     0.00879587
O      -2.11601853     1.86420842    -6.07573197     1.82752328    -0.31600268     0.24114225
O      -5.76824959     6.85912815    -2.08307341    -0.17667112    -1.39363456     0.42261124
O      -5.83318515     6.91911405    -5.86324975    -0.26886411    -0.36420015    -0.78973901
O      -5.78873090     1.94155844   -10.09820933    -0.93085215     0.65559745     0.11183347
O      -5.82660326     2.02126052    -5.90274941    -0.58683778    -0.93940508    -0.18454034
O      -9.94891227     6.77407454    -9.77151479     1.12935237    -0.21814582     0.02716615
O      -9.91638596     6.76943751    -6.03413604     0.68179155     0.78952474     0.53358915
O      -3.97185449     2.27995323    -4.06259599     1.67759883     0.74619690     0.70042942
O      -3.91953880     2.45752967    -7.99612137     0.26486023     0.00674017    -0.21474108
O      -7.89378103     2.40930691    -4.02550267     0.00637070     0.04659213     0.57216405
O      -7.76794721     2.46930085    -7.90691826    -0.52818270     0.12070242    -0.60191859
O      -3.85178581     6.34329860    -3.95814959    -1.24453176    -0.78917309     0.37233579
O      -3.97523238     6.28769593    -7.86544501     0.08538394     1.15669288    -0.43636397
O      -7.78858166     6.32904734    -3.84685457    -0.00313998     1.15945238    -1.37869118
O      -7.74590906     6.41020093    -8.00288556    -0.92530669    -0.03882733     0.68536735
O      -3.78302984     4.36750162    -2.03535035    -0.54183315    -0.04948665     1.43319953
O      -3.92147444     4.29786179    -5.95459276     0.14394157     0.06911519     1.02468981
O      -7.62024703     4.56112333    -9.95407336    -1.24011762    -0.83540563     0.71453775
O      -7.92821020     4.55901974    -5.91154356     0.34374740    -0.05468367    -0.71853650
O      -7.87137337     8.73734716    -9.80229337    -0.67125813    -0.56063009     0.05970389
O      -8.07506411     8.65857125    -6.01609153     0.00245334    -0.10444844    -0.36889500
O      -7.81497895     0.02645437    -6.22530945     1.51990168    -0.12190661     0.67905015
O      -7.71547776     0.09148656    -9.85362228    -1.01571169     0.03016653     0.05468916
O      -1.95666498     4.11785401    -3.98717078    -0.19921599    -0.69147628    -0.64203614
O      -9.82281677     4.69536287    -4.04550099     1.70360068     0.22166573     0.34068354
O      -5.89412016     4.07474799    -3.89791954     1.21209898    -0.14086939    -0.94613826
O      -5.92211741     4.45287482    -7.84383696     1.45210253    -0.71357975    -0.65936087
O      -2.09490287     0.20351067    -3.95672020     0.29892502     0.43072685    -1.16715044
O      -5.67219093     8.52413304    -8.01463267    -0.33429537     1.02381617     0.38020954
O      -5.80279817     0.05440693    -3.89815794    -0.71071265    -0.21963431     0.25448193
O      -5.90609894     0.70898693    -8.04686625     0.49147875    -1.19052899    -1.46919254
