# total energy = -630.10356913 eV

CRYSTAL
PRIMVEC
        0.00279571     0.02951795    -7.98606283
       -7.83802570     0.01298533    -3.99532603
       -3.92160916     8.71933433     0.00634407
PRIMCOORD
56 1
Li     -3.96581696     2.14209631    -2.08784485     0.40509780     0.08240982     0.88875241
Li     -3.82863635     2.13201009    -5.94585789    -0.67514131     0.08768690    -0.25106642
Li     -7.81501762     2.11666821   -10.04714257    -0.77673911     0.55041354     0.15067382
Li     -7.85676047     1.93704893    -5.94613647     0.24002614     0.60221733     0.00060430
Li     -3.94432101     6.51674933    -1.96145974     0.02209661    -0.13093622    -0.34712148
Li     -3.83047623     6.39825779    -5.81136060    -0.30836275    -0.00055998     0.09693870
Li     -8.05567621     6.57239262   -10.03220230     0.46050309     0.00482203     0.89769826
Li     -7.75594747     6.37538149    -5.87385522    -0.63217105     0.29963224     0.18997863
Ti     -1.95660656     2.13941689    -3.97809479     0.97713994    -0.05766761    -0.84539205
Ti     -5.88785457     6.66754030    -7.90329511     0.57884852    -0.39003266    -1.70728601
Ti     -7.83596324     4.38870534    -7.79005146     0.82569132    -0.87141408     1.21361101
Ti     -7.81609300     4.41148660    -3.71448076    -0.10939530    -0.34634118    -1.60074321
Ti     -3.85351190     4.38509781    -7.69767375     0.31094340     0.01743676     0.95461624
Ti     -3.86510152     4.28693734    -3.69052641    -1.23137444     2.00492014     0.02265675
Ti     -6.10396952     8.59332158    -2.15440975    -0.25592386     0.56456230     0.88532345
Ni     -5.75525177     2.40129740    -7.99976544    -0.16513800     1.23088556     0.26441345
Ni     -5.92413406     2.36159482    -4.11543554     0.39650667    -0.39776183     0.47300853
Ni     -9.79957601     6.42305723    -7.90708552    -0.20476809     1.33256146     0.28261199
Ni     -9.85609493     6.50459663    -3.88624558     0.55379455     0.34298274    -1.30631140
Ni     -1.90045419     2.14020108    -8.02337474     0.14481754    -0.27384959     0.62745600
Ni     -5.85854103     6.46359603    -4.05960238     0.23924719     0.04820597     1.30983444
Ni     -5.92687313     8.67105653    -5.96539259     0.14137029     1.12183438    -0.28042828
Mo     -6.02555933     0.23432360   -10.26458689    -0.89861379    -2.96598008     0.23128584
Mo     -9.79745437     8.70113995    -6.39178451     1.63922811    -0.66227268    -0.54426550
O      -1.96834877     1.91797116    -1.88642534     0.00199652    -0.44787727    -1.85523194
O      -2.01809424     1.82818912    -5.97040262     0.81637177    -0.39263824    -0.14971257
O      -5.97017429     6.76359736    -2.06796642     0.58428186    -0.73032857    -0.12328170
O      -5.76937754     6.82510695    -6.05014024    -0.67851051    -0.31553391     1.51050114
O      -5.85542748     2.06988113   -10.07084875    -0.22610174     0.70850051    -0.56655761
O      -5.80562648     1.91294725    -5.91972033    -0.42300916     0.08226591    -0.44348530
O      -9.88463907     7.04383220    -9.68945598     0.30708233     0.14080123    -0.89132836
O      -9.77986537     6.79734104    -6.03649409     0.28868318     0.15632893     0.26626137
O      -3.96784258     2.36631929    -4.03949477     0.55378200    -0.17120012     0.86025587
O      -3.72830918     2.49043497    -7.84498393    -0.83594673    -0.30408528    -1.00383905
O      -7.80241479     2.29798647    -4.06121186    -0.41772139     1.23765738     0.74599804
O      -7.80832189     2.36863273    -8.11079569    -0.45179407     0.72599537     0.90515720
O      -3.77898913     6.35456810    -3.86137952    -1.29265854    -1.16491670    -0.50288208
O      -3.96681243     6.36280567    -8.12794037    -0.10473415    -0.21458750     1.68862435
O      -7.78407852     6.40011827    -3.82401624    -0.66793050    -0.62785148    -1.81039246
O      -7.95157714     6.32868363    -8.03930861     1.74258404    -0.28480290     0.75356102
O      -4.09525043     4.39923987    -1.93218553     0.76999011    -0.87052638    -0.85310524
O      -4.09441302     4.32095939    -5.89015131     0.69657140     0.98790167    -1.05001780
O      -8.00046472     4.46022810   -10.00005106    -0.04590085    -0.57333302     1.60253030
O      -7.85360454     4.34366040    -5.99618178    -0.34415086     0.39781246    -1.28917605
O      -4.00100388     0.05320831    -9.99428733    -0.63158084     0.38417374    -0.62815540
O      -7.88383523     8.66842339    -6.09940113    -0.83626448    -0.17798183    -0.10270680
O      -7.67147799     0.02223487    -6.11786649     0.37345509    -0.26602966    -0.49231796
O      -7.82789529     0.12297310    -9.89409831     1.38697069     0.37630870    -0.96691208
O      -1.98205313     4.09930098    -4.12726992     0.22398008    -0.40678223     0.81037733
O      -9.81461590     4.63028672    -4.05284920     0.20711450     0.36839566     0.38736011
O      -5.88942375     4.39393783    -3.89658854    -0.18815009     0.26904924    -0.69174884
O      -5.83088745     4.42771266    -7.92200180    -1.41047710    -0.41559236    -0.49501681
O      -2.01497530     0.16858549    -3.99309351     0.16281365     0.58316698    -0.04675611
O      -5.74134418     8.43687153    -8.15733914    -0.52144873     0.51429538     0.45058620
O      -9.87707892     8.50503702    -4.05293147     0.11982089    -0.27871709     0.71414921
O      -5.66825134     0.65283953    -8.19473855    -0.71516260    -1.43783592     1.55126244
