# total energy = -630.87310234 eV

CRYSTAL
PRIMVEC
        0.00285542     0.02004370    -7.95977623
       -7.82940539     0.00763210    -3.98158109
       -3.91729101     8.74642787     0.01461334
PRIMCOORD
56 1
Li     -3.86666198     2.28140930    -1.88689821    -0.18472494    -0.35989201    -0.03775514
Li     -3.90689804     1.97059051    -6.13051896    -0.25013711     0.30844404     0.29167104
Li     -7.72325083     2.43948547   -10.03304568    -0.59635594    -0.28513571     0.88534849
Li     -7.72513865     2.11351902    -5.93966719    -0.50394325     0.34330899    -0.22892556
Li     -3.82646366     6.69421528    -1.93510279    -0.41277147    -0.46683183    -0.09020765
Li     -3.95398646     6.42721571    -5.87241401    -0.14751623     0.13367835     0.49630557
Li     -8.10151332     6.52270058    -9.88148857     0.72626571    -0.19119586    -0.21361587
Li     -7.69493914     6.69670437    -5.75994040    -0.63713604    -0.14200499    -0.63611565
Ti     -2.09785383     2.15326382    -4.09048337     0.88504093     1.06563150    -0.93060110
Ti     -5.87462320     6.65741241    -8.09485113    -1.30628990    -0.27380614     0.37700111
Ti     -7.84330774     4.40909073    -7.69921054     0.19166165    -1.27718219    -0.07699214
Ti     -7.83229297     4.37791830    -3.73558033    -0.05778404     0.28195521    -0.47055107
Ti     -3.83475211     4.38045191    -7.57554948    -0.54583655    -0.53120070    -0.48352849
Ti     -3.93673634     4.33108032    -3.64658993     0.22614277     0.82700971    -1.18063707
Ti     -2.10669649     0.05816277    -2.12376370    -0.90338507    -0.22531868     1.23271647
Ni     -5.76715789     2.40556747    -8.01021461    -0.39474659     0.58077564    -0.11412940
Ni     -5.95386223     2.21741351    -4.07208324     1.02252471     0.15264844    -0.05797265
Ni     -9.73324414     6.62840419    -7.79379533    -0.98730670    -0.46397045    -0.38014776
Ni     -9.78302921     6.49845025    -3.99998577    -0.20526032     0.14468797     0.04008545
Ni     -1.91848741     2.19615332    -7.99181547     0.04083005    -0.51411624     0.28116356
Ni     -5.88341653     6.44536848    -3.93431094     0.71967908     0.62541094    -0.28140849
Ni     -5.85201281     8.74093623    -5.94186252    -0.14854564    -0.01222879     0.00292295
Mo     -6.04167121     0.06531238   -10.23440659    -0.24500261    -0.35961318     0.15500315
Mo     -9.84910786     8.70788027    -6.28568349     2.08418537    -0.70394329    -1.28724106
O      -1.88718857     1.94780306    -1.90122876     0.08358072     0.16732413    -0.89347851
O      -1.98643090     1.86185564    -6.12753197     0.47992855    -0.25154677     1.31226010
O      -5.79843696     6.82693431    -2.04230787    -0.39225858    -0.33177234    -0.15096435
O      -5.87179431     6.91016430    -5.81592312     0.59839704    -0.05017868    -0.18846029
O      -5.90367061     1.90455181   -10.16139313     0.57415242     1.76498650     0.50970432
O      -5.85605620     1.87347334    -5.91251898    -0.31418834     0.75535787     0.42888278
O      -9.90064613     6.94756113    -9.68258078     0.63296674     0.28269117     0.16528252
O      -9.74444769     6.67266882    -5.92997106    -0.16401334     1.55284986    -0.38643298
O      -3.95730873     2.35275200    -4.07098334     0.09837809    -1.16622635     0.87761988
O      -3.77228784     2.49061588    -7.98231411    -0.82704367    -0.59812500     0.23236900
O      -7.83720906     2.40033278    -3.95965122    -0.01921377     0.59829687    -0.47260219
O      -7.68631210     2.49212294    -7.92210961    -0.42076507     0.07626618    -0.48578410
O      -3.78698492     6.23947307    -3.87556695    -0.08321944     0.87775601    -0.00590216
O      -4.08293391     6.35457664    -7.90413191     2.52248359    -0.16028551     0.35027865
O      -7.80965833     6.35880005    -3.96651621    -0.08808400    -0.11038900     0.92093712
O      -7.82477555     6.37459168    -7.95542926    -0.08787376     0.27506118    -0.04773631
O      -3.85205044     4.18296649    -1.93296089     0.05155376     0.20395286     0.55639198
O      -3.88528525     4.10158664    -5.84486630    -0.08426684     1.12295924    -0.86171498
O      -7.94301969     4.39600666    -9.93312661     0.60168640     0.22382483    -0.34817872
O      -7.71672875     4.49310127    -5.97385554    -0.42457963    -0.13858664     0.64649337
O      -3.94548425     0.15329057    -2.06695369    -0.07252961    -0.73578549    -0.39493832
O      -4.13037242     0.02293108    -5.90882616     0.87376666    -0.62313913    -0.19119474
O      -7.70688970     0.03824775    -6.09613513    -0.56935161    -0.70683066     0.88678425
O      -7.80285499     0.12055038   -10.14499008     0.01835071    -0.28381783     0.37158807
O      -2.00175750     4.04078034    -4.05207580     1.19695194     0.03103106     0.56388787
O      -9.80158297     4.69400086    -3.91538956     0.85955024    -0.42389528    -0.34631718
O      -5.79544188     4.52764251    -4.03728895    -2.01331104    -0.41317073     0.38296870
O      -5.77050068     4.39106570    -8.06862120    -1.06614734    -0.23405746     0.47382896
O      -1.67095642     0.29173551    -3.92669495    -0.82487264    -0.34444026    -1.21538416
O      -5.89602736     8.45760954    -8.04584795     0.06255023     0.46269052     0.20880847
O      -9.83946652     8.37269639    -4.00788619     0.19481904    -0.17168358    -0.35785239
O      -5.83511306     0.57861116    -8.07962287    -0.00800215    -0.54677532    -0.10493043
