# total energy = -630.46976601 eV

CRYSTAL
PRIMVEC
        0.00279571     0.02951795    -7.98606283
       -7.83802570     0.01298533    -3.99532603
       -3.92160916     8.71933433     0.00634407
PRIMCOORD
56 1
Li     -4.02889385     2.43214048    -1.85264589    -0.05618658    -0.09678846    -0.68160179
Li     -3.97132485     2.12096844    -5.96327551     0.17904402     0.21605168    -0.36223343
Li     -7.79250018     2.29416089    -9.97210896    -0.15061546    -0.15009200    -0.09447612
Li     -7.75757852     2.04187553    -5.92162205    -0.12945909     0.53085397     0.04910041
Li     -3.84755162     6.58513761    -2.19462126    -0.73532587    -0.24149971     1.13469420
Li     -3.94272726     6.48765430    -5.93835335    -0.25333232    -0.27850242     0.13928564
Li     -7.90966800     6.55389185   -10.03700675     0.08327708    -0.06912094     0.93396976
Li     -7.76351598     6.35621838    -6.10637870    -0.23918353    -0.27953468     0.90397126
Ti     -2.04759573     2.28380798    -4.17176954     1.38909184    -1.61741203     1.60089101
Ti     -5.78604810     6.75496848    -8.03758020    -1.35642230    -0.70209071     0.47174266
Ti     -7.77044743     4.29624052    -7.75749499     1.08880846    -0.29618093    -0.51044743
Ti     -7.68242262     4.39740333    -3.63192264    -1.89454485     0.03785635    -1.82129092
Ti     -3.78109327     4.39341911    -7.73597022    -0.26739432     0.42135645     1.16846619
Ti     -3.98179083     4.40251188    -3.82961813    -0.65003430    -0.07480155     0.66196096
Ti     -2.28160222     0.09736827    -2.01611332    -0.02473690    -0.36393680    -0.26344999
Ni     -5.84897538     2.28304882    -7.97603928    -0.38372410     1.67539175    -0.00184433
Ni     -5.85905036     2.17085902    -4.04851635    -0.40673144     0.22618992     0.66045626
Ni     -9.84090084     6.48649096    -7.99617309     1.52332219     0.10440650     0.17791134
Ni     -9.76896930     6.58621783    -4.09707332    -0.23898185    -0.86757943     1.29296708
Ni     -1.99087996     2.32329602    -8.02135290     1.75608333     0.18036541     0.17151575
Ni     -5.88436706     6.65462159    -3.93785829    -0.54604170     0.01925537    -0.86393037
Ni     -5.95943992     8.61993623    -5.96843016     0.24282776     0.09517241     0.05558915
Mo     -9.95525480     8.68533187   -10.17902236    -0.09837237     0.47886258    -0.93877629
Mo     -9.77634814     8.62498294    -6.32538777     0.14654541     1.44790333    -0.15347409
O      -1.96842727     1.92930400    -1.98207760    -0.08410203     0.33990276    -0.22666636
O      -1.97797235     1.81178048    -5.96736647     0.03413942    -0.46020482    -0.78941815
O      -5.87869098     6.83318222    -1.96786752     0.11694278    -0.04431450    -0.37536630
O      -5.93476696     6.74515714    -6.03232091     0.17072627     1.16224498     0.51003439
O      -5.93623426     1.97910757   -10.09128723     0.41070099    -0.39771146     0.15879311
O      -5.76935470     2.06448547    -5.87643743    -1.07029180    -0.99656633    -1.18572863
O      -9.84746800     6.76648969    -9.95807851     0.50908074     0.40160758     0.37325282
O      -9.81170657     6.78382027    -5.99225104     0.74476956    -0.88368481    -0.52581021
O      -3.96426001     2.42053940    -3.99360902     0.54404205    -0.32531161    -0.07239425
O      -3.85087779     2.52857303    -7.99263379    -0.58345774    -1.11471834     0.26663822
O      -7.75105346     2.48907296    -3.97491528    -1.00582482    -0.81986283    -0.20691221
O      -7.83844034     2.27643777    -7.97513641    -0.49160503     0.58818368    -0.03041656
O      -3.80323838     6.32768285    -3.99390040    -0.69433315     0.79694329    -0.22602344
O      -3.97493132     6.34525692    -7.93947518     1.07586902     0.61844779    -0.67943582
O      -7.91860708     6.40641188    -3.89642399     0.49082453    -0.33771777    -0.66305658
O      -7.83129090     6.21827186    -7.97670675    -0.26175229     1.09744775    -0.61687818
O      -4.01651927     4.38754132    -2.04328469     0.38766957     0.31224965    -0.52483869
O      -3.93913451     4.46452209    -5.93807968     0.49048090    -0.18821114    -1.18538599
O      -7.74434608     4.20561458    -9.90843884    -0.28852697     0.57956027     0.89864757
O      -7.70692221     4.29115962    -6.04697044    -0.75213415     0.23097327     0.99311034
O      -4.09911483     0.09831169    -9.89341729     0.34296765    -0.54679596    -0.04225428
O      -4.06322551     0.19402251    -6.00490321    -0.01614931    -1.34380486    -0.29520619
O      -7.56231142     0.06908164    -5.76110814    -0.07607853    -0.19322535    -1.09417684
O      -3.88642184     8.62320719    -6.09712574    -0.43476580     0.12136525     0.31953066
O      -1.95523634     4.08494895    -4.12239263    -0.32606350     0.89670008     0.21750081
O      -9.66589926     4.39372797    -4.13370821    -1.27058119     0.13882014     0.47373120
O      -5.92258527     4.57898305    -4.07728931     2.11937669     0.68298286     0.05112918
O      -5.82102890     4.29586173    -7.94995178     0.47432221    -0.56561811    -0.47177455
O      -5.92107370     8.72351155    -3.85751878     0.08820970    -0.04049862    -0.74758839
O      -5.90673043     8.59106989    -8.04308790     0.15158776    -0.21007208     0.55531033
O      -5.82201607     0.15399187    -4.02186133     0.11725885     0.14546034     1.04874323
O      -5.96970909     0.50925816    -8.10736494     0.15129799    -0.82417318     0.24690305
