# total energy = -631.09655159 eV

CRYSTAL
PRIMVEC
        0.00279571     0.02951795    -7.98606283
       -7.83802570     0.01298533    -3.99532603
       -3.92160916     8.71933433     0.00634407
PRIMCOORD
56 1
Li     -3.94969588     2.16044936    -1.97223296     0.01524635    -0.05117663     0.14193939
Li     -3.82926607     2.20838403    -5.99768124    -1.11350235     0.05224638    -0.05103597
Li     -7.93698490     2.21728888    -9.96215380     0.65688824    -0.21894836    -0.24211655
Li     -7.76571674     2.27634299    -5.93970259    -0.24406427     0.17007477     0.08053027
Li     -3.91129308     6.25009041    -1.80770874    -0.07498572     0.24749562    -0.60019697
Li     -4.08427271     6.47701429    -5.89831676     0.55411730    -0.04007697     0.21241380
Li     -7.82876415     6.63126795    -9.99891093    -0.14423574    -0.17053448     0.61439818
Li     -7.96471921     6.33662203    -5.76064999     0.29018560     0.48111421    -0.56899417
Ti     -1.95395076     2.46844045    -4.06107690    -1.21542941    -1.99899526     0.41955224
Ti     -5.91946210     6.72890045    -7.95340028    -0.40903715     0.13677999    -0.08913751
Ti     -7.62449660     4.36626982    -7.83681343     0.03251039     0.95388569    -0.80109338
Ti     -7.89550727     4.35425835    -3.76127689    -0.06087587    -0.19125948     1.37950720
Ti     -3.85320034     4.35658772    -7.71560216    -0.24551217    -0.08416898    -0.57663221
Ti     -4.10527329     4.35363579    -3.75021253    -0.79571639     0.53748929     0.09073575
Ti     -1.66529089     0.06465617    -2.17891338    -1.97236243    -0.32717404    -0.18991926
Ni     -5.82602580     2.13791443    -8.09555260    -0.45799350    -0.29898686     1.20462751
Ni     -5.95116983     2.22441516    -3.95132610     0.81804302    -0.17613324    -0.65956032
Ni     -9.85727401     6.40563788    -7.91465847    -0.30549223     0.39157318    -0.92356716
Ni     -9.78131913     6.61853392    -3.85748606    -1.07864879     0.13816410    -1.09923225
Ni     -1.93209029     2.02240053    -8.03314941    -0.53673936     0.88605758     0.41066882
Ni     -5.94352559     6.75422893    -3.97531441    -0.02849079    -0.55538926     0.03096890
Ni     -5.89257289     8.73356530    -5.92492667    -0.00472618     0.83507142     0.22291430
Mo     -9.85827101     8.61675522   -10.36041120     0.04708440     1.02035679     0.16125481
Mo     -5.84531570     0.03297801    -6.32437567     1.16779597     1.22767180    -0.55917573
O      -1.95006333     1.95965961    -1.96928829    -0.34442288     0.03082433    -0.24683207
O      -2.03350989     1.88564462    -5.90272977     0.93721343    -0.01604535    -1.28147203
O      -5.91786133     6.84874803    -2.07514422     0.48725769     0.63449322     0.42682255
O      -5.94020545     6.85151322    -5.89876245    -0.20180413     0.96462210    -0.11546346
O      -5.89409333     2.00970620    -9.94465034    -0.44032466    -0.59630365    -0.33374113
O      -5.92330743     2.01185121    -6.12684618     0.28346803    -0.78054394    -0.53681139
O      -9.88498943     6.73125895   -10.01508109     0.16253277    -0.37386875     0.41755837
O      -9.91413420     6.90277939    -5.78701865     0.58803145    -0.23681091     0.28335337
O      -3.92713617     2.36944242    -4.02096351     0.02938967     0.97843007     0.45009929
O      -3.99706722     2.41399917    -7.99398380     0.07687778    -0.27985305    -0.11396751
O      -7.79910963     2.34244312    -3.95775149    -0.74473690     0.42725131    -0.09644474
O      -7.89451907     2.45764620    -8.00125866     1.07830023    -0.05811492    -0.01556857
O      -4.01892916     6.32670740    -3.93603336     0.32730124    -0.57587671    -0.08555520
O      -3.86250736     6.42021558    -7.89335127    -0.28176562    -0.64398563     0.11283217
O      -7.92153648     6.41181370    -3.85349306     0.46436199    -0.64734721    -0.96933351
O      -7.83994711     6.39869656    -8.02700946    -0.26372344    -0.28676258     0.43618621
O      -3.89059027     4.38406015    -2.01212167    -0.08011487    -0.28673667     0.18226668
O      -4.09957423     4.30563198    -5.98823931     0.50872383     0.40474086     0.33784096
O      -7.84522272     4.42936765    -9.97087212    -0.48413139     0.09505378    -0.53382229
O      -7.58594439     4.55512681    -6.10882542    -0.83179275    -0.52670867     1.43154035
O      -4.21958059     0.04049091    -9.77218860    -0.25601533    -0.07547376    -1.27601147
O      -4.10410162     0.14147250    -6.09576287     0.54024212    -0.53148828    -0.41839629
O      -7.78100034     0.22514377    -5.94563428     1.14257885    -0.42194618    -0.32632616
O      -7.74127935     0.06952274    -9.97959585     0.30198508    -0.06692290    -0.48093121
O      -1.99263389     4.32184505    -3.95830845     0.15389909     1.10363485    -0.30043839
O      -1.96271637     3.94435174    -8.01249812     0.17117957     0.20165771    -0.04113457
O      -6.01272821     4.08479649    -3.93051539     1.06235289    -0.01872468    -0.16129060
O      -5.81532145     4.74662728    -8.17934742     0.61024059     0.19524049     0.29957988
O      -1.94721396     0.43594918    -3.99729375    -0.02880313    -1.19306446     0.37477243
O      -5.91346634     8.61123499    -8.00329053     0.17174485     0.50056607     0.15135511
O      -5.87414923     0.37570932    -4.22562353    -0.05357776     0.12283566     2.11307443
O      -9.98016121     8.30756742    -8.11152891     0.12764192    -0.61420384     1.70656023
