# total energy = -630.05863904 eV

CRYSTAL
PRIMVEC
        0.00279571     0.02951795    -7.98606283
       -7.83802570     0.01298533    -3.99532603
       -3.92160916     8.71933433     0.00634407
PRIMCOORD
56 1
Li     -3.90744945     2.49868259    -1.87704449    -0.25780595     0.02377771    -0.04637455
Li     -3.88558743     2.02294179    -6.05466959    -0.20448618     0.49063407     0.13635070
Li     -8.00970294     2.12993909   -10.01763316     0.58082353    -0.09191929     0.16338332
Li     -7.72290086     2.51809510    -5.80432068    -0.12722571    -0.87655014    -1.17016117
Li     -3.89752796     6.25856863    -1.97134197     0.07142811     0.20762244     0.05402654
Li     -4.00727425     6.85446629    -5.92590873    -0.15409976     0.11103254     0.07738030
Li     -7.80866730     6.74905105   -10.04094653    -0.80973714    -0.43423470    -0.02812675
Li     -7.93221418     6.30276536    -5.91918964     0.46966560     0.13572582     0.06259951
Ti     -2.06764538     2.23886867    -3.88688306     0.84540250    -0.94024252    -0.64916022
Ti     -5.96088015     6.60939175    -8.05561650     0.28700904     1.06025557     1.50899748
Ti     -7.76700105     4.27312840    -7.84432610     0.05478515    -0.09683730     0.13379613
Ti     -8.00953943     4.30419971    -3.76245054     0.80646832     1.19607509     1.07623078
Ti     -4.00458183     4.37238370    -7.65926251     0.28186647     1.03512136     0.88524570
Ti     -3.91228412     4.43685197    -3.84400834    -1.87372417     0.78299491     0.78835302
Ti     -5.63388459     8.66556439    -2.01564598     0.78595147     1.66201001    -0.50352337
Ni     -5.86281327     2.13916477    -7.88432872    -0.00662127    -0.15590663    -1.32796050
Ni     -5.82498461     2.33685676    -4.11923875    -0.45402704    -0.51476306     0.54441501
Ni     -9.77309747     6.38104075    -7.98379694    -0.53090296     0.99550701    -1.24018210
Ni     -9.87398399     6.52437890    -3.93100371     0.13006230    -0.11680485    -0.22201198
Ni     -1.98848589     2.24917323    -7.97419146    -0.35056417    -0.23748248    -0.01182025
Ni     -5.98216211     6.61229151    -3.93545425     0.59887713    -0.51939274    -1.59255035
Ni     -5.93503413     8.68390679    -5.90130196     0.66708242     0.31912390    -1.40213123
Mo     -5.82541225     0.22927028   -10.29412290    -2.93962577    -0.01153813    -0.82592478
Mo     -9.71679401     8.62825639    -6.31663962     0.43784172     0.92267803    -0.79478093
O      -1.91813626     1.91406308    -2.04581807    -0.44713242     0.56098128     1.09130966
O      -2.04210799     1.79476515    -6.03084997     0.09041853     0.67120317     0.39513137
O      -5.83734494     6.76920416    -2.06624579    -0.25652742     0.17174401     0.02639460
O      -5.95083718     6.83344589    -6.07161930     0.03110432     0.22846324     1.25883275
O      -5.92111597     2.13335190    -9.88798615     0.20786728    -1.34450804     0.97808839
O      -5.81295246     1.89908077    -6.07011048    -0.16623145     0.05240844     0.36618603
O     -10.03354775     6.94264813   -10.09581322     2.10480911    -0.00334727    -0.25071495
O      -9.87673925     6.77677880    -5.81933824     0.44197330     0.62405560     0.07863992
O      -3.92906201     2.42658672    -3.82464163     0.53487379    -0.75422014    -0.88835033
O      -3.93045874     2.50887775    -7.97292363    -0.27517407    -1.78569210    -0.40345227
O      -7.91293979     2.41591634    -4.03993797     0.31025682    -0.08242260     0.62757399
O      -7.82467754     2.30987211    -7.92654656    -0.15420021     1.51505013    -0.33557217
O      -3.87667733     6.31276063    -4.01761110    -0.44385041     0.78438839     0.04973552
O      -3.89442309     6.34980927    -7.95357096    -0.80391911     0.08003835    -0.00941274
O      -7.89816513     6.34044177    -3.98153213    -0.09998061    -0.38995722     0.10747716
O      -7.85077874     6.37313166    -8.06476096    -0.53336063    -0.42657332     0.19558559
O      -3.81304464     4.44936503    -2.05859004    -0.44169916    -0.80534046     0.00966429
O      -4.08779912     4.14206162    -5.90476815     0.36953347     0.23182201    -0.68562751
O      -8.06978697     4.43312726    -9.98769106     0.59353623    -0.23976140    -0.14003380
O      -7.67512225     4.35779064    -6.05762214    -0.68217524     0.54476531    -0.47933776
O      -4.07821551     0.09012138    -2.10974214     0.87950569    -0.60941403     0.61790375
O      -7.91383239     8.71460424    -6.05351151    -0.76821652    -0.39209584    -0.43909373
O      -7.70571373     0.18214232    -6.09872971    -0.18417576    -1.10327737     0.32663259
O      -7.79998622     0.18583114   -10.07538082     0.70860877    -0.40769774    -0.09708294
O      -1.98028739     4.33648439    -4.02421367     1.58644941    -0.65300645    -0.11842319
O      -2.11422521     4.36537226    -8.04734239     1.54887463    -0.04137070     0.15913994
O      -5.85503180     4.16606550    -3.90697473    -1.44740688     0.34359366    -0.36216228
O      -5.87873671     4.72857956    -8.08653209    -0.28536985    -0.93230154    -0.33027996
O      -1.95462550     0.30276280    -3.98241147    -0.37229911    -0.34795664     0.51968537
O      -5.91029269     8.56178806    -8.09223446     0.05733322    -0.22667457    -0.50335213
O      -5.76368685     0.40830101    -4.15001494    -0.62083114    -0.14217922     0.92700139
O      -9.85436804     8.32005665    -8.15312516     0.43094285    -0.56771694     1.59311506
