# total energy = -630.58842078 eV

CRYSTAL
PRIMVEC
        0.00279571     0.02951795    -7.98606283
       -7.83802570     0.01298533    -3.99532603
       -3.92160916     8.71933433     0.00634407
PRIMCOORD
56 1
Li     -4.20446914     2.32118329    -1.92623700     1.33020742    -0.24742254    -0.25587597
Li     -3.97135400     2.08767431    -5.95340368     0.47030734     0.24766946     0.15925433
Li     -7.95398105     2.45481519   -10.04956741     0.40567035     0.31938006     0.15191708
Li     -7.85021713     2.33018034    -5.93155065     0.25571592    -0.22251102     0.21099728
Li     -3.72991673     6.53323665    -1.97458790    -0.26784143     0.22810611     0.07556883
Li     -3.90658677     6.55887187    -5.78916729    -0.06987046    -0.39760898    -0.48043333
Li     -7.81549184     6.47838996    -9.97195844    -0.80123851    -0.40303162     0.09286214
Li     -7.87050087     6.51562565    -5.92484547     0.98715549     0.25058372     0.10603654
Ti     -1.83670715     1.96901453    -4.03855752    -0.67164240     0.54693249     0.08606097
Ti     -5.76758890     6.41950120    -8.08941202     0.19229095     0.72087308     1.31354596
Ti     -7.94854978     4.43287934    -7.76095000    -0.64307789    -0.27511820    -1.52221635
Ti     -7.81549588     4.44714866    -3.85876001     0.13081635    -0.00299019     2.04654766
Ti     -3.77186825     4.25716914    -7.80245381     0.12251714     0.72889359     0.35191647
Ti     -3.92087344     4.36447426    -3.64812735     0.15685607    -0.74018423    -2.07420213
Ti     -6.29093288     8.69569701    -1.92248837    -0.89231686     1.05436276     1.02496907
Ni     -5.84266025     2.38575929    -8.05574339    -1.53562751    -0.64260317     0.60289099
Ni     -6.00695589     2.31000606    -3.97693430     1.10796360    -0.60229872    -0.64495293
Ni     -9.75067909     6.56024551    -7.87607654    -0.22835822     0.76080047     0.01607039
Ni     -9.76052212     6.45502718    -3.92357329    -0.62318250     0.32566074    -0.68162195
Ni     -2.01305140     2.04629946    -8.07386017     0.44535992    -0.28460234     0.89483004
Ni     -5.79041475     6.63231498    -4.03769585    -0.57446771     0.55486882    -0.01364372
Ni     -1.92168399     0.09446571    -6.10692983    -1.17777739    -0.84418865     0.06824958
Mo     -6.09865084     0.10626659   -10.27987073     0.95616569    -0.97012356     0.41661790
Mo     -9.73640263     8.71580378    -6.27224427    -0.05154548    -0.34262347    -0.08875092
O      -1.96818318     1.83606195    -2.01683759     0.27026172     1.01710681    -0.11222648
O      -1.91646804     1.92064383    -6.11628108    -0.51796028    -0.15961149     0.66876385
O      -5.96216986     6.83824149    -1.97584274     0.72373466    -1.11131606    -0.05757942
O      -5.91543961     7.00663197    -6.08843530     0.45969673    -1.21797559     0.15708388
O      -5.94710532     2.00878077   -10.12515616    -1.20470793     0.43312710     0.40778926
O      -5.79159221     1.90004574    -5.85615009    -0.98160106     0.40303787     0.54231204
O      -9.80943156     6.89900251    -9.73167517    -0.31954570     0.51763898    -0.40224195
O      -9.65814964     6.70475170    -5.95535189    -0.51986428     0.91515079    -0.72085680
O      -4.01355655     2.39747479    -3.90916193    -0.10473593     0.57663410    -0.24280970
O      -4.00489035     2.36597874    -7.97237662     0.85618372     0.33641275    -0.19469603
O      -7.89181001     2.46351444    -3.92636093     0.12818723    -0.09082641    -1.24762283
O      -7.79988410     2.45118879    -7.97241605    -0.04203881    -0.88750617    -0.22224907
O      -3.78867247     6.38310532    -3.88798361    -0.04595716    -0.56797644     0.05306223
O      -3.88648543     6.47458056    -8.06584567    -0.66891698    -1.04339991     0.53329176
O      -7.90934586     6.41233038    -3.92085894     0.88019226    -0.47838127    -0.22756208
O      -7.85059666     6.30890282    -8.02187589     0.15760568     0.30300555     0.30755388
O      -3.76445946     4.34260584    -1.91403021    -0.81817782     0.31823676    -0.12646125
O      -3.96794042     4.46933542    -6.09995781     0.33455292     0.25972730     0.86635085
O      -7.80920451     4.35763974   -10.00736577     0.20320829     0.43661814    -1.30114418
O      -7.79987836     4.37930176    -6.03002605    -0.02414587    -0.26780361     1.11165026
O      -4.19842271     0.15323852    -9.86696144     1.41686090    -0.18656579    -0.65303707
O      -3.90070223     0.05243151    -5.99333640    -0.95669368    -0.03750097    -0.22126338
O     -11.46802351     8.67898986    -5.75239895     0.95510014    -0.06978181    -0.95908129
O      -3.95811240     8.70539004    -6.20711127    -0.14793338     0.50343975     0.26944574
O      -1.98299761     3.92033109    -4.18002781    -0.21501250     0.53845274     0.92504500
O      -9.76159363     4.56369899    -4.12254046     0.31542285     0.09080373     0.56574669
O      -5.83872932     4.71822598    -4.11195528     0.31196659     0.11727213     0.50062715
O      -5.89853386     4.50121164    -8.01931162     0.50910538    -0.08962909    -0.39089077
O      -1.83598302     0.03437533    -3.78059009     0.01337345     0.03923674    -1.61632328
O      -6.09685970     8.63448595    -8.04816053     0.74235354    -0.58460248    -0.38786183
O      -9.62005132     8.35313183    -3.96494724    -0.40995695    -0.16489445    -0.19671469
O      -5.92358140     0.49179447    -8.08820123    -0.42556239     0.16613578     0.58943338
