# total energy = -630.33392435 eV

CRYSTAL
PRIMVEC
        0.00279571     0.02951795    -7.98606283
       -7.83802570     0.01298533    -3.99532603
       -3.92160916     8.71933433     0.00634407
PRIMCOORD
56 1
Li     -4.05201166     2.17181175    -2.10571497     0.31946412     0.03008144     0.60212014
Li     -3.91287134     2.62273936    -5.92202810     0.02722363    -0.66330025    -0.26507606
Li     -7.86576807     2.05550247    -9.94643287     0.14750646    -0.00148359    -0.12854815
Li     -7.74438053     2.29175039    -6.04430782    -0.72327856     0.05684124     0.62797664
Li     -3.81822565     6.35369418    -1.99088638    -0.03552709     0.32716751     0.17296932
Li     -3.87668638     6.52803876    -5.89161829    -0.27429732    -0.01507017    -0.13295331
Li     -7.79082819     6.47256452   -10.09995403     0.04477169     0.35543032     1.23530167
Li     -8.00336651     6.38781335    -5.81261026     0.68989918     0.00242202    -0.08959084
Ti     -1.89556551     2.29006984    -4.06656794    -1.30045830     0.02786742     0.59756454
Ti     -5.84181595     6.66390791    -7.91264418    -0.68818045     1.15247541    -0.65342595
Ti     -7.81572126     4.49047599    -7.72638436    -0.58449089     0.17424932     0.95741577
Ti     -7.90435462     4.32086422    -3.68258988    -1.16333634     0.45909011    -1.32223705
Ti     -4.02028385     4.41238054    -7.87146489     1.16919856    -0.83006314     1.50997294
Ti     -4.19401787     4.41157880    -3.71712091     0.75146610    -1.74052963    -0.72695777
Ti     -1.70282732     0.04744895    -2.04990678    -0.01516857     0.34026281    -0.28350679
Ni     -5.80800672     2.03093598    -7.80847106    -0.46961104     0.44658199    -1.85688867
Ni     -5.98414936     2.26807991    -4.08198931     0.37299905     0.05588015     0.04793343
Ni     -9.86188785     6.30376412    -8.08944348     0.91251130    -0.27225464     0.35351211
Ni     -9.78246967     6.54088300    -3.90371183     0.00712738    -0.16020039    -1.05500058
Ni     -2.00597113     2.16956156    -8.07707529    -0.42005890     0.70465492     0.25951971
Ni     -5.82212895     6.67086498    -3.98058066    -0.78215247     0.20307851    -0.04445372
Ni     -5.91732378     8.72905442    -5.90599766     0.37094462     2.07983931    -0.65852302
Mo     -9.79398660     8.74760457   -10.31384917    -0.11031765    -0.40063652     1.62406657
Mo     -9.57641229     8.71864941    -6.30292322    -3.02284022     0.61445010    -0.36735347
O      -2.08539520     2.06985901    -2.05942110     0.62576475    -1.34551616    -0.09720787
O      -1.94123951     2.01255010    -5.98778044    -0.23860033    -1.34991001     0.49423111
O      -5.73073162     6.83984224    -2.04811657    -0.65134848    -0.19729985    -0.49203463
O      -6.00933194     6.95683978    -5.98919749     0.81604876    -0.98556562     1.25571440
O      -5.99752846     1.82101469    -9.70157354     0.84019695     0.44624339     0.10077751
O      -5.91862200     1.90475695    -6.01104365     0.83938186     0.74607481     0.13742820
O      -9.80678889     6.81916909   -10.05568970    -0.21115493    -0.84026194    -0.00582185
O      -9.80095605     6.91991736    -5.88862519    -0.15008507    -1.16598691     1.74851053
O      -4.05304836     2.45166693    -4.02839493     0.89988558     0.43473364     0.10679528
O      -3.98659041     2.43706585    -7.98471822    -0.10197593    -0.53207887     0.08111383
O      -7.90065114     2.40497973    -4.03794929     0.26588865    -0.21728265     0.12649882
O      -7.74536267     2.55793445    -7.93771789    -0.96331787    -1.00969804    -0.10787145
O      -3.89868913     6.22894498    -3.94910059    -0.47614769     1.50157896    -0.72126704
O      -3.89999144     6.37285681    -8.01608322     0.39763478     0.50236784     0.59721942
O      -7.84548123     6.35984987    -3.88884232    -0.01794066    -0.48048144    -0.75577672
O      -7.75875766     6.42910169    -7.92277483    -1.48768023    -0.31874809    -0.62630246
O      -3.93998886     4.41841435    -1.97868358    -0.65104214    -0.31115430     0.40791292
O      -4.04753784     4.42092703    -6.04536956     0.42611833     0.67239403    -0.99623568
O      -8.07420886     4.44435535    -9.92619402     0.56097351     0.15820685     0.24465528
O      -8.11294726     4.52987537    -5.95397000     1.07789798    -0.35042990    -1.14108220
O      -8.00554507     8.71080959    -2.08918117    -0.90978243     0.01316897     0.45044333
O      -3.97809471     0.13594419    -6.20582946     2.80440846    -0.11998357     0.53460550
O      -7.75482003     0.19558061    -6.11534970    -0.21522391    -0.21294880     0.33702174
O      -3.90719353     8.68523610    -5.95300628     0.54064311    -0.13029865    -0.46159486
O      -2.02420108     4.32081729    -3.94397391    -0.17229483    -0.35660438    -0.76432370
O      -2.05189375     4.12236250    -0.13700603     0.42728696    -0.11314653     0.83991843
O      -5.99320519     4.21823438    -4.19384473    -0.92820868    -0.63087550     0.88255814
O      -5.94349707     4.74229874    -8.03166347     0.66469248    -0.53062259    -0.09130691
O      -2.13355296     0.27142132    -3.94289507     0.53094182     0.98813343    -0.28530169
O      -6.01387062     8.55672931    -8.12072378     0.72337851     0.88109163     0.25525278
O      -5.78170904     0.36164891    -4.08610321    -0.80711481     0.34325950    -1.36040601
O      -9.91023362     8.08182445    -7.98738551     0.34138583     1.21345386    -0.87834192
