# total energy = -630.74961548 eV

CRYSTAL
PRIMVEC
        0.00285542     0.02004370    -7.95977623
       -7.82940539     0.00763210    -3.98158109
       -3.91729101     8.74642787     0.01461334
PRIMCOORD
56 1
Li     -3.81633719     2.20266951    -1.93481846    -1.07140026     0.20579076     0.37799133
Li     -4.05307036     2.23019435    -5.95083494     0.69858996     0.09487905    -0.08696037
Li     -7.80390360     2.01973557    -9.99476651    -0.26293396    -0.13304412     0.17645157
Li     -7.68961794     2.03063205    -6.05604925    -0.89664750     0.39406865     0.72832268
Li     -4.04159495     6.35490253    -1.97955351     0.62988132     0.04029900     0.24106077
Li     -3.90996159     6.69413103    -5.79376889    -0.01910285    -0.12925291    -0.17678385
Li     -7.92699043     6.32434960    -9.85265302     0.12962429     0.70397991     0.02432030
Li     -7.93501166     6.43265548    -5.74684494     0.56754671     0.00826696    -0.68351176
Ti     -2.03489409     2.30095281    -4.04956510     1.65798395    -0.11962557    -0.54902173
Ti     -5.76187560     6.82117264    -7.88663716    -1.38313194     0.55670634     0.47990722
Ti     -7.85637084     4.44747395    -7.64307660     0.81978067    -0.02576667    -0.27689651
Ti     -7.87109798     4.29531452    -3.63508091    -0.28687660    -0.08997594    -2.41517292
Ti     -3.92862661     4.37433380    -7.68203292     0.02343472    -0.77018995     1.23253963
Ti     -4.00766990     4.34673433    -3.70956511    -0.60277952     0.58079829     0.48633992
Ti     -5.77645585     8.72034521    -2.18578046    -0.49516181     0.18546068    -1.26500162
Ni     -5.85891804     2.28921905    -7.94331131    -0.66584837     0.41158633    -1.39677088
Ni     -5.84221834     2.30140442    -4.08422288    -1.40785799    -0.32523957    -0.18369160
Ni     -9.87510136     6.63602630    -7.91597109     0.59152609    -0.23287090     0.18491970
Ni     -9.78625259     6.39692697    -3.94666537    -0.38240905    -0.23508030     0.41416536
Ni     -2.02229320     2.08889006    -8.02104421     0.40416874     0.63468856     0.54351774
Ni     -5.79517953     6.57198587    -3.99299558    -1.24412145     0.01122663     0.47930106
Ni     -5.97376991     8.71628331    -5.88470262     0.42315321    -0.88192067    -1.34924839
Mo     -5.79693994     0.08015605   -10.36020210    -2.19829790    -1.07921912     1.24802345
Mo     -9.75582901     8.64308288    -6.25366945    -0.05002976    -0.18360457    -0.56066668
O      -2.03227632     1.89963989    -2.11025004     0.39134207    -0.21344174     0.67941425
O      -2.07136811     1.74151618    -6.00848141     0.27574610     1.86262889     0.66904859
O      -5.88028360     6.83356395    -1.97058993    -0.23656233    -0.48961581     0.38761205
O      -5.88793641     6.88395221    -5.84839228     0.22749962    -0.42796237    -0.54911082
O      -5.89124304     2.06770120   -10.08042567     0.51598973    -0.35449988     0.99138154
O      -5.85903079     2.00952133    -6.06065342    -0.27231703    -0.35145951     0.66445927
O      -9.89533206     6.92026685    -9.85049812     1.56878418    -0.25417493    -0.32851870
O      -9.87874351     6.75178078    -5.99797904    -0.03529261     0.47717202     0.54140601
O      -3.90465651     2.38361828    -3.90373276    -0.48341787     0.12794759    -0.79247236
O      -3.99153520     2.34723109    -7.86485913     0.87128861     1.06127235    -0.60009727
O      -7.90236106     2.31604312    -4.02064826     0.05220977     1.00685354     0.21005485
O      -7.89619766     2.44995220    -7.89547719     0.32102786    -0.15687706    -0.73397945
O      -3.89174310     6.25125159    -3.89973738    -0.33700687     1.42798279    -0.31615571
O      -3.89397607     6.41559397    -7.90743004    -0.52681092    -0.19362415    -0.00580992
O      -7.91428435     6.37861677    -3.92552099     0.45425512    -0.86924213     0.76213657
O      -7.76017158     6.43316891    -7.82498627    -0.12507493    -0.22703520    -0.72733545
O      -3.89937971     4.46903931    -1.92318997    -0.20047155    -0.56233891    -0.71474304
O      -3.83995982     4.45881963    -5.86871126    -0.02246198    -0.28957344    -1.60055785
O      -7.90166219     4.45043993    -9.87845216     0.10504656    -0.12903923     0.87725494
O      -7.78128051     4.53572231    -5.92564944    -0.30895041    -0.36447657     0.46607168
O      -7.97677838     8.74703363    -9.95183356     1.16860049     0.17614724    -0.02708060
O      -8.03599992     8.68671959    -6.07357488     0.41339207    -0.24490910     0.44783991
O      -0.04856819     0.04455568    -2.02736234     0.93403657    -0.29318699    -0.45036215
O     -11.51913684     8.74793557    -9.92930755     0.06520439     0.49528530    -0.14190649
O      -1.97157498     4.24028734    -3.94354070    -0.38690681    -0.98623641    -0.15024628
O      -1.98403437     4.32855393    -0.09199023     0.28957616    -0.28066370     0.41927316
O      -5.91681274     4.15717649    -4.09441031     0.18372142     0.59831355     0.69265826
O      -5.85745619     4.34396828    -7.96255290     0.00690320    -0.06895234     0.11317926
O      -2.15806598     0.14001466    -4.11635730     0.60343127     0.58633218     2.55289273
O      -5.83992423     8.69237076    -7.83686332    -0.05555348    -1.27828246    -0.53181484
O      -5.89829252     0.43421095    -4.18202608     0.15911691    -0.46166488    -0.69026471
O      -5.80903808     0.38974557    -8.04506426    -0.81067776     1.05527682     0.42893499
