# total energy = -630.41558346 eV

CRYSTAL
PRIMVEC
        0.00279571     0.02951795    -7.98606283
       -7.83802570     0.01298533    -3.99532603
       -3.92160916     8.71933433     0.00634407
PRIMCOORD
56 1
Li     -3.92535924     2.17929226    -1.99442571     0.40186376    -0.05188770     0.31572208
Li     -3.92525241     2.05431984    -6.01635714     0.18826135     0.21784902     0.17714936
Li     -7.94644772     2.56975482   -10.01049178     0.22912675    -0.17351617     0.42707495
Li     -7.72092594     2.14700925    -5.94386944    -0.49995239     0.26246702     0.23084420
Li     -3.98481401     6.25545192    -1.97194155     0.65735649     0.05998117    -0.12419112
Li     -3.83362004     6.34467155    -5.82430274    -0.09390149    -0.10174343    -0.14663436
Li     -7.82686879     6.46800860    -9.82539277    -0.59993089     0.56331548    -0.78946449
Li     -7.91846468     6.58685843    -5.90333796     0.17559718     0.08295937    -0.03292880
Ti     -1.84959587     2.17149512    -4.03993411    -0.78812571    -1.23300741     0.82157780
Ti     -5.86064650     6.45972403    -8.00309451     1.17619049     1.91290318     0.59456274
Ti     -7.86362578     4.42415455    -7.76631859    -0.77529897    -0.73890417     0.65287192
Ti     -7.74906835     4.46883997    -3.75403514    -0.73167534     0.40092598    -0.43403289
Ti     -3.74530551     4.25033738    -7.75550732    -0.01053754     0.57239587     1.49020149
Ti     -4.14789976     4.20329258    -3.75948486     1.53815733     1.27089379     0.13070425
Ti     -6.05367891     8.65813663    -2.00738908    -0.64443178     0.82955038     0.50141990
Ni     -5.81420865     2.45847623    -7.98083072    -0.35075052    -1.03474209    -0.47088959
Ni     -5.85689018     2.07835948    -4.01018266     0.08359007     0.11587169     1.11382777
Ni     -9.76327409     6.51803312    -7.88953835    -0.66629249    -0.12855402    -0.53323126
Ni     -9.76663309     6.45791943    -3.93501307    -0.03186482     0.80947912    -0.11628134
Ni     -1.88760998     2.11661184    -7.98669817     0.46335887    -0.36131695    -0.01818444
Ni     -5.90182196     6.69115958    -4.05311563     1.01817462     0.41542088     0.28810136
Ni     -5.98063599     8.67864418    -5.91688667     0.37193670     0.21929314    -1.33638916
Mo     -6.11123513     0.26146048   -10.28266163     0.11635016    -3.89462507     0.78283221
Mo     -5.90444665     0.05718524    -6.42993473     1.04059919    -2.25063839     1.24406751
O      -1.76875771     1.79041727    -1.97000433    -0.29965309     1.48520412     0.23698701
O      -1.94432644     1.88430472    -5.92122944    -0.40476962    -0.95268469    -1.30021927
O      -5.81710628     6.80667563    -2.02992863     0.07125065    -1.90698464     0.71079080
O      -5.87363111     6.85142865    -5.96467473    -0.20573146     0.22327434    -0.12788198
O      -5.89946615     2.05016173    -9.97162443     0.18272700     1.30354901    -0.98343477
O      -5.86310978     1.87120719    -5.83754763     0.42920918     1.40164891    -0.15177957
O      -9.78491884     6.97403386    -9.73605690    -0.09966631     0.60334870    -0.78556256
O      -9.85017264     6.87377332    -6.05395797     0.37018047    -0.69208180     0.76544718
O      -3.92694036     2.32471303    -3.90978102    -0.22650309    -1.09559498    -0.41776906
O      -3.81893158     2.36440049    -8.08044352    -0.24354690     0.08993315     0.74460006
O      -7.70751286     2.52914352    -3.85070080    -0.52608556    -0.48272279    -1.31766801
O      -7.79820305     2.49426675    -7.98345250     0.91209625    -0.66855345    -0.13465247
O      -3.74352587     6.14536155    -3.92893870    -0.06347962     0.73233186    -0.01248661
O      -3.94680785     6.29539681    -7.85163346    -0.05743662    -0.44760892    -0.68849001
O      -7.79266341     6.50330861    -3.99199913    -1.22868297    -1.05660106     0.39119764
O      -7.79954420     6.32636420    -7.92392568    -0.11422557     0.83465622    -0.40197683
O      -4.06412691     4.23660969    -1.95321263    -0.02531776     0.23422226    -0.50820578
O      -3.98098700     4.18438984    -5.92258096     0.15916627     0.15153106    -2.08963166
O      -7.98580504     4.50519844    -9.96522796     0.28724616     0.16033295    -0.14176198
O      -8.02785766     4.50023606    -6.02502257     0.30051563    -0.31713308     0.31081752
O      -7.81271642     8.70634239    -2.11134586    -1.36923436     0.68811737     0.22462113
O      -7.92754781     8.65831467    -6.12734784    -0.55313245     0.46492575     0.31573047
O     -11.56302237     8.73465588    -6.14766069    -0.63587039     0.05916666     0.46217797
O      -0.01850054     0.06395644    -6.20922056     0.59999241     0.41288104     0.46307507
O      -2.02822154     3.94909171    -4.08351127     0.15102186     1.64716986     0.46325185
O      -9.74294705     4.56744612    -4.06732759    -0.24948028     0.20620183     0.36271158
O      -5.91651615     4.82698746    -4.12416999    -0.26050021    -0.12569782     0.19910644
O      -5.89110679     4.39805905    -8.02133949     0.14455986     0.63943894     0.38202235
O      -1.80405067     0.10286746    -4.00905546    -0.17955978    -0.79729982    -0.07348783
O      -5.96748213     8.51156162    -8.00836925     0.58828121    -1.28362202     0.01372878
O      -9.76341918     8.50846199    -3.99068760     0.06613899    -0.91028891    -0.62444452
O      -5.89688199     0.47831637    -8.15774159     0.25443098     1.30345622    -1.18773944
