# total energy = -630.39938182 eV

CRYSTAL
PRIMVEC
        0.00279571     0.02951795    -7.98606283
       -7.83802570     0.01298533    -3.99532603
       -3.92160916     8.71933433     0.00634407
PRIMCOORD
56 1
Li     -3.87606305     2.09957027    -1.94628645    -0.70654478     0.33137803     0.32866687
Li     -3.84188119     2.34948475    -5.93547162    -0.29694375    -0.39517209    -0.19338712
Li     -7.72110290     2.18940202    -9.98810601    -0.38865156     0.16213909     0.08075094
Li     -7.80430789     2.47830773    -5.85136503    -0.35276817    -0.01070630     0.37011028
Li     -3.71189747     6.37019258    -2.03680332    -0.52042240     0.23808076     0.43371948
Li     -4.03053797     6.35928571    -5.74038528     0.20358658     0.19052971    -0.78960962
Li     -7.81145996     6.53257387    -9.95296052    -0.19404667     0.08313341     0.18744001
Li     -7.78904710     6.39411146    -5.87737978    -0.46780191     0.33018938    -0.05989969
Ti     -1.86136449     2.17191582    -3.93575028    -1.89827463    -1.02313312    -0.59004663
Ti     -5.80757570     6.56772869    -7.91997224     0.40063662     0.30669267    -0.51095139
Ti     -7.84837953     4.46228983    -7.77882296     0.72338643     0.10691273     0.34004106
Ti     -7.81287750     4.42161279    -3.66345542    -0.19145494    -0.83620214     0.59962550
Ti     -3.72891268     4.39981593    -7.75658871    -1.01909719    -0.50755363    -1.52341943
Ti     -3.96415620     4.37313648    -3.75916512    -0.39652671    -0.46878161     2.58523515
Ti     -6.06754228     8.62678455    -2.02280128    -0.13991593     0.29933821     0.03978079
Ni     -5.89989485     2.19767758    -7.80571680     0.65659999     0.90178846    -1.66364601
Ni     -5.70621130     2.24700660    -3.96503652    -2.19021829     0.79955725    -0.48932666
Ni     -9.81193123     6.39922452    -8.07292581     0.59932328    -0.77990064     0.57356854
Ni     -9.73714871     6.56900870    -4.13100694    -0.16194325     0.19357251     1.03625081
Ni     -1.98625929     2.19509800    -7.95581544     0.20009228    -0.42584730     0.33765530
Ni     -5.86382271     6.52013576    -3.89288655    -0.47789999     0.45865329    -0.80027475
Ni     -5.98990727     8.71953749    -5.95186965    -0.60183578     2.72346380    -0.49687482
Mo     -9.97634490     8.67368065   -10.31411548     0.18802710     0.14497648     0.10405963
Mo     -5.98522808     0.13813384    -6.48128927     2.94228721     0.17811355     1.55293023
O      -2.08944822     1.92136537    -1.99382008     1.62218300     0.06301469     0.22115326
O      -1.95302395     1.90165456    -6.01725423     0.03572488    -0.36859351    -0.11797727
O      -5.82853433     6.71673210    -2.02043784    -0.01672642     0.32669090     0.58258695
O      -6.00573498     6.94906791    -5.92450953     1.02963518    -1.39397507     0.00397505
O      -5.74338340     1.88035836    -9.81485791    -0.83645332    -1.13001787     0.30432842
O      -5.97749070     2.10464199    -5.92605132     0.17849166    -1.01292012    -0.90889155
O      -9.80194445     6.74978185   -10.13465305    -0.47857635     0.36202967    -0.52297479
O      -9.70360993     6.93200368    -5.98667663    -0.46891194    -0.76959214    -0.03194444
O      -3.80113814     2.49821651    -4.01818852    -0.26324188    -0.88091805     0.22285983
O      -3.96019121     2.43286688    -7.90988501     0.14081056     0.42937439    -0.03861642
O      -7.89223200     2.42001019    -3.88815202     0.00628747     0.77377895    -0.37106908
O      -7.87745564     2.44835272    -8.02315085     1.86182231    -0.18242130     0.66791975
O      -3.94081341     6.25175723    -3.90214449     0.23282247     1.62861109    -1.00472307
O      -3.84903106     6.44501650    -8.05017221    -0.33687996     0.09320945     0.70734905
O      -7.79513666     6.38413056    -3.88705048     0.07274410    -0.61398479    -0.65134403
O      -7.83735213     6.37315797    -7.93291690     0.04866256    -0.04251938    -0.35688271
O      -3.95447773     4.49111736    -1.94919326    -0.02925933    -0.83577338    -1.37931251
O      -3.81573375     4.41024766    -6.01848178    -0.14795975     0.45649757     1.31150552
O      -7.81698959     4.51246883    -9.84991793    -0.04530337    -0.39659624    -1.42562799
O      -7.77226522     4.45028297    -6.01852215     0.11825108    -0.33362050     0.18417116
O      -7.84545047     8.55716425    -2.19127246    -1.50302565     0.32521867     0.16082391
O      -4.15504229     0.22009485    -5.97181531    -0.80411303    -0.06273443    -0.66578406
O     -11.66541414     8.70857275    -6.20383421    -0.25463254     0.41118886     0.12065140
O      -7.83283166     0.04812438   -10.11609612     1.07534466    -0.42259980     0.44060981
O      -1.97135193     4.35354889    -3.88489277     0.40180579     0.32620278    -0.66226142
O      -9.74226823     4.50649153    -4.18790605     0.95578881    -0.10606934     0.53418208
O      -5.90699350     4.20945230    -4.00623806     0.44995494    -0.37484743     0.00156566
O      -5.77386904     4.66355440    -7.95095552    -0.75849506     0.47434831     0.08040335
O      -2.10552184     0.28377498    -4.01847222     1.13533083     0.51932970    -0.18291531
O      -6.06566868     8.58820977    -8.06828053     0.78992901    -0.85049981     0.47765540
O      -6.00303956     0.41386064    -4.09297432     0.59565175    -0.63659218     0.54536129
O      -9.67854353     8.16452632    -8.24350962    -0.71844585     1.56148587     0.48077598
