# total energy = -630.72401128 eV

CRYSTAL
PRIMVEC
        0.00285542     0.02004370    -7.95977623
       -7.82940539     0.00763210    -3.98158109
       -3.91729101     8.74642787     0.01461334
PRIMCOORD
56 1
Li     -3.95652054     2.22142811    -1.85641660     0.00877976    -0.01261373    -0.64782021
Li     -3.84795503     1.89375691    -6.07983460    -0.51901404     0.30084767     0.47941824
Li     -7.78331819     2.42083894   -10.07434531    -0.07036737    -0.14495734     0.03490849
Li     -7.75444894     2.37385173    -6.04168274    -0.09681540    -0.55887140     0.44615011
Li     -4.12312285     6.21594125    -1.90915246     0.61524515     0.23361419     0.24037281
Li     -3.83690811     6.64892278    -5.86470346    -0.68636505    -0.39003190     0.29073295
Li     -7.90508814     6.45665220    -9.90178497    -0.06893471    -0.19273694    -0.08503425
Li     -7.86755693     6.65292500    -5.87784856     0.05566643    -0.21231794     0.37199924
Ti     -1.86877415     2.18953051    -4.10697412    -0.51923259    -0.25530966    -0.65603167
Ti     -5.89371393     6.67952393    -7.87134165     0.71691528    -0.12899781    -0.29951458
Ti     -7.77154016     4.40636270    -7.71398873     0.27546692     0.31087712    -1.92241390
Ti     -7.70547184     4.36452792    -3.90174350     0.43134999     1.26460576     0.96142153
Ti     -3.82893053     4.24519457    -7.62670126    -0.20105326     1.08695327    -0.24104129
Ti     -3.85636125     4.35717241    -3.75025848    -0.86682133     0.28614201    -0.16472249
Ti     -2.15342755     0.01815783    -2.01373468    -0.54124505    -0.03628523    -0.41018996
Ni     -5.77362932     2.35140326    -8.08037985    -1.64445342     0.24496232     0.33833700
Ni     -5.80930546     2.18361268    -4.18243122    -0.69416502     1.20400439     1.16876673
Ni     -9.84733751     6.57844071    -7.77694305    -0.23947610     0.21049945     0.26028585
Ni     -9.84822171     6.32943627    -3.98019292     0.91895198     0.20974923    -0.05065620
Ni     -1.86690053     2.39938250    -8.04794451    -0.93148636    -0.77374795     1.06321752
Ni     -5.91328463     6.72852236    -3.84994457     0.18275869    -0.26515406    -0.68449272
Ni     -5.98961394     8.68365348    -5.96461793     0.94695321     1.41400386     0.13822628
Mo     -6.01187999     0.04356310   -10.21315637     1.91650619     0.12805847     0.37263289
Mo     -9.82221369     8.69425431    -6.27397920    -2.07408929    -0.49639618    -0.39396288
O      -1.85323548     1.91106731    -1.85585585    -0.53597799    -0.22444286    -1.58455100
O      -1.98937397     1.94595866    -6.09263561     0.48220652    -1.14472078     1.14049174
O      -5.90893330     6.74792011    -1.93664282    -0.40185112     0.97811253     0.11549780
O      -5.78692922     6.82866247    -5.92361840    -1.00336539     0.32620097     0.80800527
O      -5.91429300     2.03262507   -10.15957492     0.82616725     0.00016706     0.62090506
O      -5.87972405     2.01752693    -6.04947854     0.93536865    -0.79179176    -0.10349212
O      -9.84387475     6.96128220    -9.69156956     0.56100773    -0.35216012    -0.12914478
O      -9.82115691     6.69558242    -5.86249908    -0.36545414     1.00577274    -0.60518807
O      -3.78151211     2.37606061    -3.94292864    -0.31451098    -0.11349824    -0.46311169
O      -3.90545718     2.32235600    -7.88679308     0.60706220     0.93280758    -0.90312009
O      -7.89574652     2.42836053    -4.05689941     1.14320966    -0.16459404    -0.24148226
O      -7.71766237     2.41568066    -8.10380269    -0.61756061     0.33420014     0.58629767
O      -3.96659660     6.42686242    -3.78040170     0.60728319    -0.85710509    -0.95439910
O      -3.95270632     6.29730951    -7.88097838    -0.00333702    -0.43057670    -0.01812658
O      -7.84302953     6.47052550    -3.89568445    -0.37638029    -1.11500285    -0.53832826
O      -7.86743997     6.40469215    -7.90117994     0.32294811    -0.64648626     0.15559636
O      -4.22907853     4.30973349    -2.03862400     0.62710169    -0.27616834     0.54103158
O      -3.85991097     4.25066000    -5.90014480     0.14029902     0.55169747     0.36009843
O      -7.84784872     4.31964431   -10.09149226    -0.30165270     0.74687496     0.78345647
O      -8.01037162     4.38119392    -6.02531507     0.35660699     0.04380505     1.77740700
O      -4.02475538     0.11187520    -9.92966404     1.69735353    -0.27244369    -0.03361723
O      -8.02782686     8.63449864    -5.92138326     0.07508293     0.37022912    -0.16441058
O      -7.71541719     0.08436485    -5.89287891     1.13698391    -0.76397808    -0.77205241
O      -7.69739957     0.07566174    -9.97467151    -2.32278028    -0.23919088     0.14239154
O      -1.92065594     4.13331697    -3.83170571    -0.60656556    -0.26848950    -0.88708067
O      -9.74136499     4.38118738    -4.09044310    -1.36811303     0.22912719     0.03660388
O      -5.88512727     4.15422775    -4.19822765     1.21919766    -0.52253036    -0.05967025
O      -5.87925791     4.38275171    -7.82983899     0.63490583    -0.12835105    -0.32352245
O      -2.01169976     0.23456715    -3.98125604     0.39461230     0.24002025     0.43700609
O      -5.86739010     8.51719179    -7.90292196    -0.22670881    -0.32347903    -0.02831873
O      -5.86355484     0.31142621    -4.02633335     0.03885881    -0.26092173    -0.92127457
O      -5.77100518     0.52490884    -8.11058416    -0.44258091    -0.21120190     0.67498834
