# total energy = -630.97523497 eV

CRYSTAL
PRIMVEC
        0.00285542     0.02004370    -7.95977623
       -7.82940539     0.00763210    -3.98158109
       -3.91729101     8.74642787     0.01461334
PRIMCOORD
56 1
Li     -3.72338731     2.40327211    -1.92015757    -1.07354733     0.09867329     0.11379744
Li     -3.77179186     2.06811871    -5.96646635    -0.75688639     0.05572849     0.14712432
Li     -7.85786486     2.47912254    -9.94732815     0.32340112    -0.43925625    -0.13020050
Li     -7.81582400     2.08772688    -5.80407118     0.40343116     0.13014118    -0.45249576
Li     -3.92925773     6.52830469    -2.11826753    -0.05130319     0.24288812     0.94512276
Li     -3.78300019     6.58486190    -5.95188994    -0.59920883    -0.43760382     0.65258632
Li     -7.90506784     6.24480804    -9.86161957    -0.14358342     0.46755402    -0.18221064
Li     -7.84418198     6.43203437    -5.76498815     0.87613047     0.06448260    -0.49712887
Ti     -1.86667326     2.27477237    -3.92509724    -0.58420006     0.30664052    -1.54246158
Ti     -5.80616320     6.92437934    -7.93580042     0.23008262    -0.31946884     0.87450114
Ti     -7.75947742     4.42910195    -7.73710378    -0.04743888    -1.34526276     1.55464823
Ti     -7.79673921     4.41372093    -3.80724803    -0.07255522    -0.34427517    -0.39599395
Ti     -3.86396995     4.39136414    -7.73805541     0.16524503    -0.63250167     1.41924161
Ti     -4.02534728     4.46523700    -3.71908001    -0.24896185    -1.20828458    -1.57727433
Ti     -6.32334311     8.73784956    -2.20066535     1.64389050    -1.12893012    -0.31374824
Ni     -5.84274552     2.36649704    -7.86537061     0.35685495    -1.97558366    -1.18005624
Ni     -5.90464454     2.01612407    -4.01363128     1.09007592     0.58060940     0.71938125
Ni     -9.74718539     6.55284190    -7.76593129    -0.04418690    -0.04647481    -1.15422649
Ni     -9.86430558     6.40850646    -4.05346013     1.40394254     0.14669672     0.45904261
Ni     -1.87252132     2.13799639    -7.92713565     0.06568464    -0.17467868     0.37434875
Ni     -5.91577430     6.66335256    -3.99161312     0.14967993    -0.01304155     0.22903188
Ni     -5.90757013     8.73038072    -5.96126647     0.05471005     1.42396028     0.43052145
Mo     -6.07629105     0.05379327   -10.19924229    -1.48212926     1.36522523     0.20156312
Mo     -9.72094636     8.61490879    -6.32900083     0.99950553     1.60465736    -0.91497284
O      -1.90752271     1.75949338    -2.02178774     0.40524732     2.39657856     0.84011263
O      -1.91422349     1.88303417    -5.98480714    -0.04785895    -0.28994448    -0.10650187
O      -5.94364063     6.90133410    -2.00920229     0.26470706    -1.14037184     0.76721391
O      -5.86540750     6.88813319    -5.90684999    -0.15895761    -0.14984988    -0.95715201
O      -5.82222816     2.01667352   -10.02093073    -0.67162554    -1.01021479    -0.73819052
O      -5.80489175     1.85671393    -5.89965990    -0.16476882    -0.15865184     0.66350616
O      -9.74331304     6.96934289    -9.64846746    -0.18017963     0.03444379     0.24573232
O      -9.60986753     6.75008971    -5.92956537    -1.37843671    -0.79059832    -0.16140298
O      -3.90377809     2.45695708    -4.00193382    -0.07655440     0.22638930     0.40657876
O      -3.82468008     2.44186214    -7.89041202     0.19904204     0.48352654    -0.26181596
O      -7.76723343     2.35480690    -3.95306935    -0.43535904     0.27550181     0.13381841
O      -7.80618858     2.38657564    -8.01860728    -0.26111518     0.27211252     0.65106245
O      -3.78011424     6.39246170    -3.94372093    -0.25311596     0.10934435     0.06331278
O      -3.92795847     6.45377194    -7.88231367    -1.47149364    -0.42899761    -1.05309510
O      -7.88086092     6.41825713    -3.91777269    -0.14710850    -0.73996786     0.06470504
O      -7.84408730     6.29361802    -7.81396455     1.00065951     0.95421075    -0.75027435
O      -3.83081907     4.45519209    -1.97860839    -0.40030823     0.29115588     0.59324078
O      -3.99933424     4.57909537    -5.97523490     0.77770156    -0.22031813    -0.86889073
O      -7.78724664     4.35874047    -9.99188793    -0.35947468    -0.02700665     0.92437247
O      -7.82297942     4.20463800    -5.95110701     0.03682868     0.25042308    -1.18078408
O      -4.12716019     0.06327479    -2.21578952    -0.56621150     0.29025264     0.54606992
O      -7.85258366     8.68875872    -6.09895743     0.50717121     0.08605568     0.33479032
O     -11.45278409     8.65028925    -6.15695622    -1.28982423    -0.22249157     0.70996712
O      -0.07783532     0.02365466    -6.08189298     1.42976645    -0.03482941     0.33651295
O      -1.97915211     4.19070965    -3.97035725     0.68339512    -0.50682395    -0.26957498
O      -9.71077533     4.56543569    -4.10603483    -1.32466995    -0.20370259     0.37009100
O      -5.92839408     4.68057509    -4.05645256     1.15778705     0.43111036     0.18775701
O      -5.84653001     4.15757161    -7.98634566     0.04459354     1.47305895    -0.13126991
O      -2.01936528     0.25703855    -4.01667114     0.02778781    -0.75296186    -0.06636454
O      -5.83396552     8.69370704    -8.00504199    -0.32697783    -0.28504664    -0.94600081
O      -9.89787575     8.21672395    -3.95791564     0.22499125     1.26253549    -0.37247072
O      -5.83240172     0.49077814    -8.11256856     0.20680463     0.32180138     0.12092065
