# total energy = -630.62346770 eV

CRYSTAL
PRIMVEC
        0.00279571     0.02951795    -7.98606283
       -7.83802570     0.01298533    -3.99532603
       -3.92160916     8.71933433     0.00634407
PRIMCOORD
56 1
Li     -3.95034397     2.22448152    -1.95589454    -0.24856906     0.27265662    -0.30965501
Li     -3.96928883     2.06395634    -6.04528093     1.33423118    -0.20054853     0.24343873
Li     -7.85658277     2.25110892    -9.99819950     0.13594997     0.20271160    -0.45346807
Li     -7.61541087     2.46635425    -5.93456137    -0.13881937    -0.75390781     0.04185268
Li     -3.91481486     6.44544106    -2.05750995    -0.02962405     0.22044810     0.79723892
Li     -4.07865273     6.38276217    -5.74829571     0.06040562     0.66665670    -0.44884140
Li     -7.91345151     6.35286081    -9.97483704     0.03549807    -0.16269494     0.42729726
Li     -7.85241163     6.40104663    -6.02605596    -0.07713056     0.21948445     0.68234416
Ti     -1.91462784     2.30605514    -3.96346760    -0.98014229    -1.00197944    -1.05408412
Ti     -5.87429300     6.73223041    -8.03818825     0.19049778     0.15341888     0.56767349
Ti     -7.75505968     4.33923180    -7.71972519     0.07852794     2.11431219    -1.16273280
Ti     -7.76584829     4.34683101    -3.78525835     0.19194125     0.07732440    -0.42277635
Ti     -3.88634964     4.30189886    -7.61298537    -0.02309234     1.10566963    -1.31971115
Ti     -3.99863776     4.45034755    -3.75835447    -0.38774876    -0.32304971    -0.53690944
Ti     -2.22993461     0.02759586    -2.12596112     1.06763993    -0.59676411    -0.36764417
Ni     -5.78841334     2.32671309    -8.17301592    -0.18028326    -0.12447752     1.36810640
Ni     -5.83960432     2.23470824    -4.10903788    -0.65377014    -0.23960713     1.00560513
Ni     -9.90889474     6.56537799    -7.87651376     0.90563665    -0.01947091     0.12047739
Ni     -9.94568944     6.28882599    -3.93171629     1.51590268     0.15166866    -0.27676550
Ni     -1.88680675     2.25102762    -8.12111307    -0.37032219    -0.12781890     1.35799785
Ni     -5.99562813     6.71851983    -3.91254344    -0.43345826    -0.20948587    -0.74972415
Ni     -5.90297898     8.73333808    -6.02959611    -0.38220460    -0.39196770     0.56905182
Mo     -9.93117008     8.69076806   -10.19079687    -0.93502057    -1.26896708     0.76495967
Mo     -9.72629024     8.69319244    -6.32015539     0.50304209    -0.77795941     0.19294677
O      -2.07939350     1.97658432    -2.03849559     1.13011065    -0.18180988    -0.21724663
O      -1.87963955     1.83354124    -6.14850289    -0.42495242     0.51560973     0.77314574
O      -5.95328266     6.71693573    -1.96552187     0.18645563     0.89441397    -0.53792881
O      -6.03219747     6.88072135    -5.89043079     0.76134252    -0.13697042    -0.01768628
O      -5.87043448     1.90826996   -10.01200885    -0.10695631     1.12027688    -0.50312217
O      -5.71326397     1.93340300    -5.93144188    -1.35875623     0.71137890    -1.28752319
O      -9.75649658     6.81431275    -9.75264682    -0.46619429     0.48216561    -0.66733845
O      -9.70756312     6.78805216    -5.94735489    -0.98019501    -0.11898466    -0.10281002
O      -3.96428888     2.49028374    -3.99126605     1.39221830    -0.60963889    -0.11649239
O      -3.81970319     2.45123450    -8.04258728    -0.72737279    -0.35094769     0.26694221
O      -7.84504801     2.38328825    -4.04074906     0.45939116    -0.28248271    -0.31952539
O      -7.82937434     2.46593473    -8.09523734     0.36297682    -1.13737371     0.86774492
O      -4.07168742     6.45445383    -3.89285030     0.70906044    -0.57187851    -0.31269188
O      -3.95272175     6.34748827    -7.97529539    -0.85394135    -0.21580876     0.28089380
O      -8.04897802     6.26031748    -3.86299899     0.65618215     0.41320068    -0.74529911
O      -7.82559026     6.40198475    -8.00926989     0.06622599    -1.06644348     0.59266464
O      -3.96793193     4.49951788    -2.01878368     0.00979888    -0.28882297     0.36321795
O      -3.76468771     4.55417299    -5.89876122     0.14145995    -0.30987230     0.41711411
O      -7.69748006     4.29760763   -10.03126047    -0.25102171     0.14534170     0.88692694
O      -7.99063374     4.32502014    -5.99844555     0.45891336     0.35551755     0.43319921
O      -3.99188856     0.02212887    -2.09418558    -0.36688101    -0.24595843    -0.03360677
O      -7.87276905     8.73221536    -5.97068911    -0.15140539     0.19356035    -0.08403146
O     -11.48615239     8.73681458    -6.14161152    -0.76071157     0.07777701     0.28359947
O      -3.83481007     8.53919006    -5.82806488     0.24032931     0.72746137    -0.71257431
O      -1.88002268     4.15019304    -3.95465926    -1.43373847     0.43626873    -0.40422674
O      -1.95881135     4.19429280    -0.07487292    -0.05764871     0.23578525     0.38865101
O      -5.87159789     4.06461196    -4.30167509    -0.00816242     0.90929855     0.87867062
O      -5.86683895     4.40864970    -7.85719499     0.83534673    -0.28039662    -0.33463597
O      -1.91089984     0.26453901    -3.97385526    -0.20844962     0.28519927     0.19836437
O      -5.78492153     8.60621618    -8.03470190    -0.24348139    -0.50017970    -0.21961702
O      -5.97866797     0.38121431    -3.95478156     0.25546578    -0.85833137    -0.53327793
O      -5.61869492     0.45240891    -8.09909877    -0.56948755     0.32255263    -0.66281726
