# total energy = -630.68268678 eV

CRYSTAL
PRIMVEC
        0.00279571     0.02951795    -7.98606283
       -7.83802570     0.01298533    -3.99532603
       -3.92160916     8.71933433     0.00634407
PRIMCOORD
56 1
Li     -4.03934185     2.27887860    -1.80774961     0.11085037    -0.03617136    -0.29553685
Li     -3.87883535     2.33904025    -6.06906469    -0.14177753    -0.59294482     0.74109713
Li     -7.73471223     2.39576311    -9.97131034    -0.28575578     0.03422225    -0.07074284
Li     -7.91924469     2.24768680    -5.93627141     0.22396189     0.18907915     0.25363270
Li     -3.80551691     7.02484630    -1.88161494    -0.53773971    -0.67710617    -0.46782549
Li     -3.93505123     6.33697179    -5.80096905    -0.34121312     0.19308774    -0.14793491
Li     -7.83615886     6.46578259    -9.93739643    -0.33728005    -0.01187401    -0.35494891
Li     -7.84563531     6.96261481    -6.03531214     0.10810695    -0.07136843     0.36184724
Ti     -1.96020511     2.14516927    -4.06560606    -0.34270875    -0.44978876    -0.18174621
Ti     -5.77760915     6.47576338    -8.10442135    -0.87509992     1.06855841     0.42618046
Ti     -7.79177913     4.49955977    -7.66802331    -0.33825866    -1.26780714     1.16730519
Ti     -7.75542422     4.39679455    -3.79124830    -0.52645752     0.09937155     0.63484071
Ti     -3.80477831     4.34681176    -7.68805553     0.67459230    -0.61385114    -0.20173542
Ti     -3.95101056     4.41382709    -3.56031754     0.18808105    -0.47923092    -1.18061195
Ti     -2.22471776     0.10468061    -1.87862285     0.03364106    -0.04412162    -0.91826896
Ni     -5.95521070     2.13728174    -8.01036627     0.95045224     0.60206873     0.91788632
Ni     -5.79131689     2.33739495    -4.06119928    -0.83842583    -0.49906857    -0.27656318
Ni     -9.89683710     6.30763755    -7.95467941     1.26644581    -0.29421647    -0.02698592
Ni     -9.75649819     6.58889331    -4.06196208    -0.13984600     0.32465780     0.07701251
Ni     -1.94118798     2.18101479    -7.98614244     0.15670684     0.14238701     0.33378202
Ni     -5.90573797     6.60367533    -3.99363844     0.01510934     0.27141539    -0.13744019
Ni     -1.82618312     0.02200840    -5.93586546    -1.30328848     0.51587233    -0.15006164
Mo     -9.93503864     8.60432258   -10.32919892     0.50303296     1.50579445    -0.48146371
Mo     -5.94316029     0.18546301    -6.47313845     2.01288805     0.38703061     1.11142400
O      -2.09750971     2.00839822    -1.97821643     0.32397751    -0.64662051    -0.03686216
O      -1.91458719     1.90271850    -6.01106200     0.54309522    -0.02291582     0.12454995
O      -5.85968718     6.80371352    -2.01510667    -0.06058585     0.29335969     0.49092049
O      -5.88485583     6.89079041    -5.90886947     0.44985313     0.53326311    -0.39599133
O      -5.87290829     1.82585710    -9.82012152     0.00244582    -0.61998213    -0.51272511
O      -5.82201161     2.11917754    -6.12008183    -1.27972402    -0.89604238     0.03098132
O      -9.88574501     6.72503339   -10.14790914     0.31190074    -0.82386730    -0.20231270
O      -9.76565586     6.99521786    -5.87350749    -0.22029911    -1.07326170    -0.78441207
O      -3.89381510     2.45599620    -4.07678494     0.17713296     0.21933661     0.60993867
O      -3.93949390     2.35240722    -7.91247747    -0.59753249     1.05640162    -0.28160721
O      -7.72322389     2.42261430    -3.95867549    -0.07111422    -0.10711170    -0.32456903
O      -7.93005966     2.43054729    -7.92578730     1.63147091     0.18071007    -0.34140034
O      -3.94830637     6.33166262    -3.86414978    -0.24095146    -0.67405551     0.06326619
O      -3.96726092     6.51167782    -8.04606795     1.55153420    -1.14101848     0.50801362
O      -7.80104757     6.37745164    -4.03848198    -0.26122593    -0.33958979     0.31749179
O      -7.90015631     6.38323948    -8.01735798     0.43939294    -0.37863972     0.47229123
O      -4.04230909     4.19575043    -1.85862876    -0.14360094     0.28414831     0.85823615
O      -3.92469544     4.40180614    -5.92725808     0.28620821     0.11506628    -0.77184592
O      -7.85179821     4.38004964    -9.97959489     0.19872767     0.19186196    -0.06961320
O      -7.84779690     4.34673454    -5.90937696     0.31189545    -0.00840264    -0.94032206
O      -7.94947992     8.55205370    -9.99397108    -0.43566549     0.65052946    -0.24788867
O      -4.05662747     0.23262011    -6.06429313    -1.53198500    -0.65607051    -0.66715434
O      -7.75712659     0.13168690    -6.07443644     0.86099062     0.72694946    -0.32334844
O      -7.73595941     0.03934405   -10.03537314    -0.40773168    -0.30597400    -0.22955893
O      -9.69512119     4.29075669    -7.77038474    -2.53584337     1.01659138    -0.89248021
O      -1.91708917     4.22562369    -7.98979379    -0.53513786    -0.28107854    -0.13947943
O      -5.85470377     4.27616020    -4.01142086     0.76908036    -0.25329423     0.05036997
O      -5.82991683     4.63461999    -7.85927139    -0.14685596     0.44039532    -0.61030021
O      -1.87963975     0.25438478    -3.95126076    -0.35529152     0.30157553     0.15420591
O      -1.92731636     0.04562356    -8.05001792     0.05384584    -0.62815218     0.50014127
O      -5.94028458     0.15343189    -4.17084551     0.36108372     0.72354123     1.58455180
O      -9.93199955     8.06856202    -8.18026021     0.27093821     1.67359868     0.89747202
