# total energy = -631.20494593 eV

CRYSTAL
PRIMVEC
        0.00285542     0.02004370    -7.95977623
       -7.82940539     0.00763210    -3.98158109
       -3.91729101     8.74642787     0.01461334
PRIMCOORD
56 1
Li     -3.89676584     2.43124006    -1.89726306    -0.11075288    -0.23837919    -0.06875631
Li     -4.08147122     2.14053281    -5.96403953     0.52151526     0.23394145    -0.02662469
Li     -7.87368892     2.31951590    -9.97376063    -0.03942947    -0.14082943     0.13792653
Li     -7.84652685     2.11221493    -5.89191069     0.35070301    -0.04644316    -0.03924182
Li     -3.91437543     6.76772209    -1.86699339     0.15676764    -0.37958973     0.06433194
Li     -3.95922704     6.61287959    -5.80825961     0.28058300    -0.30722997    -0.55572443
Li     -7.95541480     6.19587988    -9.81720264     0.11005792     0.61073187    -0.47032854
Li     -7.78231568     6.50980329    -5.84155300    -0.20795354    -0.09624549     0.13954572
Ti     -1.99396463     2.15780258    -4.02688449     0.11971418    -0.47479344    -0.06449970
Ti     -5.91614192     6.59433556    -7.89204383     1.32845762    -0.67701396    -0.62149105
Ti     -7.81367982     4.37929102    -7.62959938     0.26587435    -0.28583796    -0.62611533
Ti     -7.79878368     4.34600168    -3.65974213     0.38648372     1.13015361    -1.14521566
Ti     -3.69524699     4.40878497    -7.71452760    -1.31137006     0.29979680    -0.02140766
Ti     -3.91397871     4.42494364    -3.71040162    -0.24819772    -0.73678192     0.04899303
Ti     -6.12268189     8.73724405    -2.00697815    -0.11805476     0.05494758    -0.29435023
Ni     -5.94046450     2.38747382    -8.14027757     1.70995093     1.59089165     1.02807229
Ni     -5.99155949     2.31651335    -4.06624812     1.35480742    -0.57755817     0.10024458
Ni     -9.87358980     6.57142088    -7.89612778     1.46408761     0.39495408     0.52434509
Ni     -9.75350339     6.45448301    -4.04701765     0.57660374    -0.62453556    -0.21373738
Ni     -2.01805489     2.08921160    -7.89500567     0.51138855    -0.01022402    -0.67056708
Ni     -5.73955255     6.60547032    -3.88610802    -1.46652552    -0.50170819    -0.10608426
Ni     -5.96911215     8.74000871    -5.99999266     0.41420918    -0.48051201     0.13347858
Mo     -5.98486305     0.07903377   -10.22044861     1.09706956    -0.55733774    -1.57585216
Mo     -9.72259558     8.70415050    -6.38599775    -2.44979787    -0.19901955     1.29759898
O      -1.86643055     1.84625463    -1.87954233    -0.68396935     0.95685110    -0.18846676
O      -2.03689853     1.80395650    -6.06528046     0.16114289     0.55298935     1.08245805
O      -5.87375627     6.85524791    -1.89916887     0.21036890    -0.82337161    -0.97038428
O      -5.91727503     6.88523513    -6.02513108     0.33014490     0.11400935     1.61935310
O      -5.90362996     2.03191488   -10.15475170     0.02140569     0.06598188     0.43985533
O      -5.90041603     1.91225049    -5.90324016    -0.11182538     0.00848291     0.02374033
O      -9.75775909     7.00200040    -9.67671134    -0.34270882    -0.42047129     0.03082674
O      -9.75043156     6.77592739    -6.05455879    -0.07684788    -0.12230188     0.37225386
O      -3.90647191     2.42969797    -3.99298679    -0.19462633    -0.54280090    -0.03700451
O      -3.91117752     2.51203787    -7.91080253    -0.27764096    -0.71447395    -0.36427940
O      -7.87114592     2.46423275    -3.94231890    -0.49902391    -1.17033409    -0.27722670
O      -7.79767586     2.46015961    -7.97586648    -0.79699002    -0.77107025    -0.02348738
O      -3.87541557     6.32877607    -3.87631392    -0.03399234     1.36918561    -0.41768929
O      -3.87708561     6.37480043    -7.86937095    -0.92270482     0.46162683    -0.61998436
O      -7.64142013     6.28299724    -3.94041486    -0.78611768     0.12560131     0.54471457
O      -7.88948455     6.34068895    -7.98029886    -0.01730155    -0.30274830     0.85473344
O      -3.89197915     4.48846445    -1.95727175    -0.20196500    -0.33166073    -0.10081176
O      -3.84128599     4.62132845    -5.98316821     0.18439807    -0.53094856     0.98514336
O      -7.93494594     4.27332322    -9.85682450    -0.15010832     0.50678438    -0.43626301
O      -7.73238572     4.40041034    -5.90860203    -0.15366536     0.00661293     0.17696682
O      -3.99417607     0.11165193    -2.08074008     0.29697191     0.26530177     0.23349286
O      -7.99519457     8.70772338    -5.92338780     0.99403215     0.25259435     0.00745400
O     -11.53747847     8.73726188    -5.96784830     0.64340168    -0.29626006    -0.09749308
O      -7.71390881     0.03889662   -10.20345745    -1.90018310     0.38491959     0.83864486
O      -1.95864527     4.01834994    -3.81467323     0.21146219     0.54530274    -0.45056096
O      -9.71496833     4.61776785    -4.14103249     0.96553886    -0.15560968     0.50157103
O      -5.81673794     4.24957285    -4.08829187    -0.65468678     0.43835309     0.72559838
O      -5.84122597     4.39273368    -8.10891568    -0.66800009     0.07681693     0.73857521
O      -1.83061692     0.19171443    -3.92441657    -0.24025231     0.14364461    -0.47448536
O      -5.96602215     8.44742654    -7.93361438    -0.08455195     0.65079295    -0.31778519
O      -9.73164370     8.23113447    -3.96673214     0.24835155     1.58115880     0.20167402
O      -5.85021939     0.57194960    -8.10468289    -0.14676996     0.03931592    -1.49549035
