# total energy = -630.68132969 eV

CRYSTAL
PRIMVEC
        0.00279571     0.02951795    -7.98606283
       -7.83802570     0.01298533    -3.99532603
       -3.92160916     8.71933433     0.00634407
PRIMCOORD
56 1
Li     -3.87881021     2.07664278    -1.89303219    -0.05095001     0.13010470    -0.34194323
Li     -3.96456103     2.42090621    -5.92569812    -0.29067977    -0.20030691    -0.33017698
Li     -7.86493317     2.53933322   -10.09893877     0.29591384    -0.34309347     0.57197158
Li     -7.77027981     2.23176176    -5.72214809     0.01153134    -0.10040335    -1.27273113
Li     -3.77515810     6.47286951    -1.94646437    -0.59055333    -0.24981292    -0.18789505
Li     -3.89868624     6.29009922    -5.83789342     0.00104053     0.02706329    -0.26122098
Li     -7.82554614     6.50446081    -9.96911127     0.03599322     0.05899126     0.54570546
Li     -7.78102127     6.53220636    -5.79841249     0.18409524    -0.13970438    -0.04876152
Ti     -1.97967080     2.33629605    -4.08976252     0.47996243    -0.51307686     0.99974013
Ti     -5.84911797     6.90643594    -7.89139321    -0.59043652    -0.98166441    -0.35679096
Ti     -7.79539099     4.31209416    -7.67918287     0.61012207     1.40503345     1.67031964
Ti     -7.88834124     4.49080577    -3.78299068     0.24860280    -0.18601078    -1.05355920
Ti     -3.85964334     4.35754562    -7.86073678    -0.56435356     1.11067460     1.14935392
Ti     -4.11818586     4.32102063    -3.79832346     0.10708099     0.92460369     1.49457960
Ti     -6.07133717     8.71619461    -2.17496076    -0.99735868     0.67605747     1.15294041
Ni     -5.86813310     2.28432067    -7.96853706    -0.27839535    -0.38537154    -0.55819159
Ni     -5.90785086     1.90010061    -3.98126135     0.76629326     0.65177159    -0.20253131
Ni     -9.75857875     6.48344648    -7.93491637     0.06938457    -0.04247905     0.44569652
Ni     -9.84697824     6.55105112    -3.99161295    -0.13651008    -0.75894819    -0.22269353
Ni     -1.91579447     2.08340361    -7.94180097     0.06735135     0.39305023    -0.63904972
Ni     -5.70106844     6.79039164    -3.98352463    -0.97643249    -0.37741588     0.51850809
Ni     -1.99233947     0.08631177    -6.03920436    -0.49837945    -1.40091044     0.79899160
Mo    -10.03462288     8.75382305   -10.21469145     0.49531528     1.24797933     0.51600459
Mo     -9.71777043     8.53760536    -6.40509740     0.55401730     0.20247521    -0.36408221
O      -1.83818753     1.92865623    -2.01933497    -0.23435265    -0.09727744     0.42317287
O      -2.05503971     1.86236511    -5.99306603     0.14734550     1.27682123    -0.64550138
O      -5.77120078     6.87842572    -2.01242072    -0.30044456    -0.50616796     0.17200112
O      -5.78097298     6.96890132    -5.98731236     0.20277722    -0.49900735     0.99052647
O      -5.83104096     1.97438444   -10.06262129    -0.68401211    -0.29972236    -0.25604700
O      -5.83443547     1.78758894    -5.88074211     0.43425966     0.56428348     0.16277651
O      -9.81414750     6.98410663    -9.69718463     0.04024879    -0.51392694    -0.56733246
O      -9.70686343     6.61910960    -6.12588047     0.02824898     0.35985465     1.34265394
O      -3.89237412     2.33771391    -3.91988418    -0.54066487     0.45717554    -0.40605060
O      -3.91470108     2.53421600    -8.04912555     0.29228781    -1.97074945     0.54533131
O      -7.74890941     2.45446855    -3.99235649    -0.78107413    -0.19921335     1.14280801
O      -7.84828887     2.38752784    -8.03072134     0.15569401     0.39792682     0.06400953
O      -3.79382850     6.38618363    -3.92920391     0.42689045    -0.57623893    -0.33213956
O      -4.04223914     6.38182471    -7.99470339     1.43874093    -0.13951864     0.37494496
O      -7.94708766     6.41539764    -3.80740734    -0.24738988     0.63367810    -1.43261855
O      -7.65739875     6.35765587    -7.78794956    -1.36737056    -1.35900524    -1.34817104
O      -3.82830343     4.46296901    -2.01200211    -0.19018325    -0.39826284    -1.06828766
O      -3.82981155     4.39722438    -5.96708353    -0.42557065    -0.07342524    -0.74040110
O      -8.00913815     4.48847290   -10.04097584     0.07443315    -0.49031682     1.82966869
O      -7.86788859     4.40553752    -5.85655792     0.16556466    -0.27200490    -2.28219803
O      -3.96554579     0.05903212    -2.14169370    -0.78525052    -0.05721971     0.20771700
O      -7.87339398     8.52275343    -6.07879098    -0.20880238     0.81760578     0.26379979
O     -11.42939434     8.61868595    -6.02196098    -1.39815939    -0.22066457     0.21232480
O      -7.88694773     0.16526548   -10.06291695     0.31735275    -0.12453008    -0.33693166
O      -1.95564814     4.19785991    -4.09572140     0.25063012    -0.78564988     0.33088678
O      -9.87058745     4.64019766    -4.08161457     1.01947472     0.53639817     0.22743672
O      -5.89304558     4.87786147    -3.82700944    -0.15220331     0.15712833    -0.97557704
O      -5.92841311     4.16156311    -8.03163467     0.30919365     0.00089627     0.08425535
O      -1.94350064     0.12231341    -3.95717855     0.70180434    -0.09811910    -1.97686386
O      -6.17564408     8.63013106    -8.09214838     1.05688591     1.57340293    -0.03892321
O      -9.89446802     8.44814239    -4.02303086     0.50287936    -0.33438430    -0.26997261
O      -5.93681333     0.40802493    -8.16066003     0.70595185     0.96796467     0.22216524
