# total energy = -630.68152758 eV

CRYSTAL
PRIMVEC
        0.00279571     0.02951795    -7.98606283
       -7.83802570     0.01298533    -3.99532603
       -3.92160916     8.71933433     0.00634407
PRIMCOORD
56 1
Li     -3.81977177     2.22118477    -2.01931121    -0.39317651    -0.11085045     0.41908123
Li     -4.13916636     2.41301956    -6.00857211     0.94744272    -0.47985994     0.02972531
Li     -7.73001859     2.41687670    -9.93606514    -0.35076267    -0.11730980    -0.43393332
Li     -7.72685331     2.22203106    -6.01081831    -0.28155538     0.09627684     0.21273406
Li     -4.06878660     6.30302987    -1.87896277     0.90435561     0.12949834    -0.80253581
Li     -3.72479092     6.45441834    -5.88320112    -0.78272093    -0.31424185     0.12787465
Li     -8.03001096     6.22876058    -9.76966683     1.10098778     0.20168570    -0.60482039
Li     -7.74954559     6.58705413    -5.90231979    -0.24879117     0.25510633     0.24290173
Ti     -1.95468659     2.27408001    -4.14373505    -0.07516782    -1.44680623    -0.20241319
Ti     -5.79171055     6.68472195    -7.97622108    -0.09398221    -0.82056108     0.08931929
Ti     -7.85554165     4.43667053    -7.68491713     0.40508562     0.46152368    -2.20347590
Ti     -7.83440742     4.34228048    -3.75990216    -0.39028226    -0.24598288     0.27362163
Ti     -3.78162135     4.26449954    -7.73540850     0.77513947     1.27128887    -0.80087165
Ti     -4.03974279     4.31791696    -3.73938777     0.08762493     1.01478860    -0.49068564
Ti     -6.09038577     8.69896514    -2.12035684    -0.82291246    -0.79500293    -1.15512463
Ni     -5.86376591     2.50410316    -8.10174136    -0.11108184     0.36692893     0.33596018
Ni     -5.88004135     2.18380070    -3.99510787    -0.79559991    -0.65557614    -0.34770233
Ni     -9.75109943     6.67565309    -7.84469168    -0.17846204    -0.54830510     0.15363010
Ni     -9.69781858     6.55381736    -3.96424809    -0.48855289    -0.90791540    -0.48034941
Ni     -1.83943767     1.85026093    -8.06995346    -0.08931727     1.00128562     0.94639458
Ni     -5.88585341     6.48228971    -4.03358278     0.15750305     0.63087277     0.46477937
Ni     -2.04018048     0.06064228    -5.98638384    -0.14876973     0.73784427     0.04575180
Mo     -6.04056103     0.04401223   -10.15324223     0.98589095     0.59849881    -0.75042244
Mo     -9.89195297     8.70242732    -6.38237988     2.49747681     0.23055879     0.49378707
O      -1.84150707     1.83808182    -2.02374542    -0.36442633     0.81641566    -0.07644665
O      -1.93835555     1.94608778    -6.04826731    -0.28463717    -0.34534022     0.11189699
O      -5.87723102     6.79878763    -2.01076126    -0.10617386    -0.58590086     0.48548314
O      -5.80737969     6.99331705    -5.99839494    -0.27280212    -1.06435283     0.33400921
O      -5.81479697     2.02620134   -10.07637841    -0.30601698    -0.24832129    -0.87574114
O      -5.81789514     1.91163550    -5.90283586    -1.66547426     0.01072496     0.31090700
O      -9.68733197     6.88350720    -9.75411724    -1.34012166     0.56028296     0.46881010
O      -9.70411827     6.79780683    -5.96661282    -0.72158071     0.08208108    -0.16385411
O      -4.05412297     2.33739116    -4.08580420     2.16671633     1.02602803     0.76504213
O      -3.91837568     2.38468595    -8.00001458     0.35527148     0.57153200    -0.05745338
O      -7.78159986     2.33838476    -4.03350474    -0.04631996     0.30829903     0.23376137
O      -7.84608534     2.50891053    -8.04036551     0.05651617    -0.58834530     0.30500651
O      -3.75270701     6.32508460    -3.88876153    -0.75794614    -0.56402696    -0.32881474
O      -3.91022994     6.28080017    -8.01958571     0.24394415     0.61681661     0.55826778
O      -7.81642406     6.36245999    -3.86607323     0.14700281    -0.41389824    -0.47120927
O      -7.82208394     6.38088786    -7.83047933     0.09569704     0.13927377    -0.88308173
O      -3.98407478     4.34925599    -1.99201779    -0.05090781    -0.42482977     0.25949141
O      -4.11538543     4.50541357    -6.02174053     0.48304559    -0.62722670     0.41688554
O      -7.95721388     4.31311219    -9.98375798     0.30098602     0.23416153     0.49394544
O      -7.88919314     4.40953228    -6.00188366     0.04545965    -0.37453298     2.51606875
O      -7.90243006     8.73420382    -9.95143645    -0.05072078     0.69023789     0.11338877
O      -7.97127328     8.70441581    -6.13272117    -0.42407196    -0.01655678    -0.09995754
O     -11.66806155     8.64676169    -6.16903017     0.45095446     0.27427641     0.32965557
O      -7.80495420     0.07282776    -9.89776420     0.88781732    -0.13522385    -0.55163598
O      -2.01684338     4.14180544    -3.97200863    -0.42306540    -0.44890635    -0.29130695
O      -9.68446835     4.53013782    -3.94637485    -2.68226716     0.88160573    -0.50479635
O      -5.98074199     4.55890600    -4.02502503     1.98670648     0.03408295    -0.15906942
O      -5.91840662     4.51189022    -8.08844239     0.40619629    -0.72048627     0.33930605
O      -2.06530239     0.15026307    -4.07719557     0.19411474     0.74176379     0.76904035
O      -5.75195697     8.52581429    -8.03499346    -0.15491654     0.36262123    -0.24026707
O      -9.75164882     8.45978964    -3.98236358    -0.63185072     0.00335746     0.36101587
O      -5.87968690     0.71516236    -8.12908200    -0.21454569    -1.34162890     0.12263649
