# total energy = -630.47709629 eV

CRYSTAL
PRIMVEC
        0.00279571     0.02951795    -7.98606283
       -7.83802570     0.01298533    -3.99532603
       -3.92160916     8.71933433     0.00634407
PRIMCOORD
56 1
Li     -3.95064176     2.13637788    -1.99760284    -0.15799317     0.33803962     0.43489046
Li     -3.98899299     2.53470689    -5.97897426     0.00158895    -0.34892825     0.05807091
Li     -7.68957818     2.09570357    -9.92796614    -0.81511621     0.16979819     0.00550413
Li     -7.88972528     2.35088090    -5.93454564     0.16064843    -0.13716872     0.05151416
Li     -3.78992520     6.72436671    -2.07913511    -0.79395302    -0.37698707     0.54036524
Li     -4.06872298     6.44785315    -5.90919815     0.43740192     0.18813194     0.02033472
Li     -7.81849984     6.56896247   -10.24718855    -0.41795615     0.05093641     1.35521379
Li     -7.91240328     6.31539260    -5.96222397     0.34623184     0.25970814     0.36195639
Ti     -2.07841367     2.20529724    -4.06835225     0.57573177    -0.39377916    -0.26385652
Ti     -5.96306945     6.59032845    -8.07581612     0.09841107    -0.37439301    -0.67689293
Ti     -7.75442479     4.29081805    -7.75848072     0.03965933     0.78484090     1.04151757
Ti     -7.91763680     4.32150252    -3.71772950     0.17855432     0.00221993    -0.44804858
Ti     -3.87298312     4.50186521    -7.72148384    -0.18600010    -0.71683769     0.45469166
Ti     -3.95938544     4.47707141    -3.65459738    -1.24768277     0.42403721     0.24413796
Ti     -1.79931519     0.09372273    -2.04417242     0.96099793    -1.42204671    -0.04517542
Ni     -5.78886907     2.03897709    -7.93368083    -0.45896506     0.30475962    -0.67443754
Ni     -5.96678310     2.25323512    -4.00559762     0.16532653     0.53793165    -0.22193866
Ni     -9.78402338     6.41585365    -8.01422110    -0.20470692     0.46759545    -0.19311902
Ni     -9.77322446     6.66055910    -3.92850749    -0.35078078    -0.43063485     0.67160563
Ni     -2.01106577     2.14882452    -7.97531916    -0.81007046     0.50487510    -0.16727024
Ni     -5.90649563     6.57644283    -4.11412027    -0.54619542     0.36629048     0.84348248
Ni     -1.87392668     0.03529518    -6.01455718    -1.52695514    -0.19116750     0.21259212
Mo     -5.94399715     0.04024625   -10.36576091    -0.27242350    -1.17604639     0.64379180
Mo     -9.64268245     8.69930224    -6.26106772     1.74791421     0.62312780     0.71610951
O      -2.02985406     1.97375191    -2.00522810     0.08554408    -0.24154982     0.22726311
O      -1.98902693     1.91387808    -5.96027300     0.53325641    -0.04090788    -0.45756275
O      -5.99220863     6.72197282    -2.08578881     0.78936776     1.58474724     0.14090047
O      -5.99259590     6.95795848    -6.03369703     1.12500615    -0.81725955     0.88817222
O      -5.81807849     2.02296490    -9.93110409    -1.18709426    -0.64833535     0.57148392
O      -5.89536475     1.87459504    -6.06369871    -0.05670323     0.87440122     0.34555754
O      -9.90000520     6.81704572    -9.96214591     0.57385727     0.59011068    -1.30495933
O      -9.75220332     6.82301833    -5.74856016    -0.29717573     0.58211021    -1.10794454
O      -3.91585837     2.45209988    -4.02089774    -0.66558866    -0.12635315     0.43867183
O      -4.01868339     2.48350254    -7.93185278     0.85897147    -0.57161154    -0.11207932
O      -7.94246838     2.28978747    -4.02597789     0.52802487     1.29189633     0.81642753
O      -7.76580827     2.39498238    -7.95683738    -0.49555054     0.34841931    -0.15002824
O      -4.03569929     6.43876338    -3.97193278     1.10236835    -1.03374407     0.05504711
O      -3.86104533     6.40446106    -8.02885249    -0.33536453     0.38291477     0.68209948
O      -7.77546470     6.38825347    -4.02795880    -1.07076956    -0.90074359    -0.36362174
O      -7.81820563     6.37580609    -7.92292722    -1.32303806    -0.69716373    -0.30265999
O      -4.11793226     4.49348201    -1.90493007     0.28155656    -0.36050916    -0.91803027
O      -3.92470873     4.41339903    -5.89744088    -0.47544240     0.49660491    -1.06422604
O      -8.05887608     4.59803838    -9.95055958    -0.04581829    -0.59500797     0.06427905
O      -7.92770593     4.43205040    -5.93849602     0.16167872    -0.51615816    -1.68653507
O      -4.17367268     0.11443874    -2.11266010     0.56152344    -0.78932192     0.15904669
O      -3.93589421     0.06308024    -5.98969645    -1.14969847    -0.07280282    -0.54704894
O      -7.78203170     0.07743826    -6.00753452    -0.40413080    -0.50104602    -0.23155567
O      -7.83561132     0.05393751   -10.04217322     1.61621620     0.32228749    -0.25013171
O      -2.06937647     4.29175068    -3.84789345     1.35894575    -0.00569709    -0.47792438
O      -2.10783270     4.19843864    -8.10138893     2.26779985    -0.40826581     0.25478646
O      -5.99756930     4.19599032    -3.90733731     0.06307511    -0.73489799    -0.44485209
O      -5.88867303     4.63097167    -7.95668371    -0.38423781     0.12886731     0.07860087
O      -1.91737297     0.25967031    -3.97991392    -0.41418147     0.70974517     0.38015629
O      -5.96669857     8.44098093    -8.06210125     0.27275925     1.99500783    -0.49784177
O      -5.90817264     0.34345801    -4.17159058    -0.30443906     0.50809239     0.62929978
O      -9.74258537     8.35430294    -8.01668859    -0.40646961    -0.91042588    -0.80002081
