# total energy = -630.70239921 eV

CRYSTAL
PRIMVEC
        0.00285542     0.02004370    -7.95977623
       -7.82940539     0.00763210    -3.98158109
       -3.91729101     8.74642787     0.01461334
PRIMCOORD
56 1
Li     -3.88298611     2.51540358    -2.01686664    -0.36056967    -0.89335007     0.56111076
Li     -3.93023434     2.23745754    -6.06564436    -0.50964507    -0.10180267     0.18563886
Li     -7.92984610     2.04703910   -10.01803849     0.78513262     0.15200893     0.25418647
Li     -7.89344429     2.04610148    -5.95051195     0.47207464     0.30169100     0.34127482
Li     -4.07481448     6.42394556    -1.88756423     0.30496699     0.06231785    -0.58301925
Li     -3.85006720     6.73789949    -5.81049138    -0.56244613    -0.12890727    -0.55038980
Li     -7.89232530     6.49765109    -9.75470488     0.00540222     0.18534192    -0.64893026
Li     -7.96390642     6.28538953    -5.80249124     0.01769129     0.42148047    -0.22399436
Ti     -2.05975020     2.30021578    -4.03335949     0.17733416     0.32960243    -0.53550262
Ti     -5.96039181     6.70337491    -7.85163018     0.71799590    -0.81772207    -0.15392804
Ti     -7.76071158     4.32821734    -7.60339779     1.09307650    -0.19528378    -0.89185527
Ti     -7.71331748     4.40349534    -3.61177586     0.00877330     0.09068161    -1.25300991
Ti     -3.74000001     4.39184963    -7.66543600    -2.39261927    -0.37979309    -0.36491078
Ti     -4.01687431     4.55366699    -3.77355151    -0.21392358    -1.71244489    -1.34999293
Ti     -5.82980662     8.69471616    -2.28738397    -0.92688323    -0.13155675     1.06376198
Ni     -5.84520868     2.29390623    -8.00800224    -0.22295803     0.50023320    -0.56084360
Ni     -5.85857558     2.19173377    -4.05835532    -0.69212775     0.61133974    -0.89570348
Ni     -9.76643273     6.57993206    -7.83234674    -0.88441935    -0.04551332     0.40948685
Ni     -9.90026448     6.44620080    -3.87528856     0.83772249    -0.00790796    -0.50174520
Ni     -1.99618103     2.25952480    -7.89230731     0.66554351    -0.14822428    -1.29195082
Ni     -5.95770031     6.74354091    -4.02787497    -0.24081542    -0.83487594     0.83163882
Ni     -5.82643512     8.73910115    -5.98871648    -0.52807949     1.17703374    -0.25554731
Mo     -9.78850715     8.73032429   -10.26622613     3.26467832     0.65290785     0.80165894
Mo     -9.82990717     8.65231718    -6.23911347     0.65348650     0.19259898    -2.11341059
O      -1.96589434     1.81977765    -1.86396970    -0.15264722     0.45936315    -1.17903207
O      -2.00479381     1.89827995    -6.05809475     0.21110337    -0.50832592     1.06735344
O      -5.98584212     6.79580757    -2.05470173     0.64424711    -0.17620982     0.08767047
O      -5.83291627     6.95278225    -5.85724978    -0.17930109    -1.03365715    -0.72273336
O      -5.84790506     1.97499119   -10.09895580     0.20985508     0.25561807     0.79122026
O      -5.88638352     1.95289120    -6.07598055    -0.44679834    -0.15423760     1.07933931
O      -9.83332200     6.91849170    -9.72867741     0.64073194    -1.28534688    -0.17200163
O      -9.94185800     6.76748046    -5.87098401     0.55293433    -0.36541575    -0.16917056
O      -3.93363248     2.40723230    -4.00649140     1.00476545    -0.27661789    -0.08363147
O      -3.89481513     2.43129334    -8.02869643    -0.03197992     0.26694323     0.39456009
O      -7.87134656     2.47182060    -3.94767546    -0.22182736    -0.64507430     0.08174961
O      -7.79903779     2.44846408    -7.96665533    -0.64604971    -0.77506214    -0.09455432
O      -3.96695896     6.37176117    -4.05413399     0.42513853     1.01717823     1.22679106
O      -4.04603815     6.27737942    -8.04439161     0.67538125     0.32737190     1.40027794
O      -7.85264655     6.39686146    -3.99722763    -0.58800773    -0.51631583     0.77000719
O      -7.83218468     6.36660883    -7.82692293    -0.37790755    -0.01181048     0.21706927
O      -3.86059982     4.32628243    -2.04524359    -0.24212656     0.76588999     0.35156258
O      -4.04353033     4.29044447    -5.95419436     1.14599687     0.17377404     0.85426643
O      -7.65291812     4.52171900    -9.84469582    -0.35114066     0.10634702     0.47031013
O      -7.74862619     4.41479463    -5.87405538    -0.67881987     0.16560589     0.21654983
O      -7.88768078     8.60591272    -2.09965678    -0.80100294     0.44543323    -0.03741020
O      -8.09107763     8.72173488    -6.12728954     0.88485919    -0.33314515     0.22298875
O      -3.91419321     8.66572043    -2.27758404    -0.60468464     0.10602387     1.01988393
O     -11.51560990     8.76105852   -10.07557313    -2.69521447    -0.08493493     0.51416372
O      -1.88083443     4.17169245    -3.96580112    -1.36414636    -0.21889759    -0.25189338
O      -9.72561389     4.36598697   -11.80337342     0.93934044     0.46316496    -0.25771088
O      -5.86316399     4.06022494    -4.16179787     0.26854116     0.21463246     1.10533459
O      -5.82621975     4.29121042    -7.86259304    -0.33281290    -0.09681952    -0.58873486
O      -1.99593168     0.24476570    -4.10412680    -0.00852597     0.70319968    -0.46920683
O      -5.79039346     8.45411478    -7.91848995    -0.15268159     1.14556943     0.06671474
O      -5.95042037     0.23848952    -4.13606819     0.18390522     0.73211904    -0.99333338
O      -5.97620598     0.48416028    -8.10540039     0.50454626    -0.21123092     0.59323526
