# total energy = -630.98165592 eV

CRYSTAL
PRIMVEC
        0.00279571     0.02951795    -7.98606283
       -7.83802570     0.01298533    -3.99532603
       -3.92160916     8.71933433     0.00634407
PRIMCOORD
56 1
Li     -4.06120795     2.55461818    -1.96982958     0.07505186    -0.52676392     0.25117989
Li     -3.97391455     2.40480121    -5.91063089     0.36514965    -0.29642679    -0.29340406
Li     -7.88586338     2.41394881    -9.76512058     0.49954583    -0.02133193    -1.10205674
Li     -7.82237070     2.40542849    -6.00622709     0.49896976    -0.42117183     0.74260990
Li     -3.86312698     6.43989458    -2.02067283    -0.08521658     0.37985503    -0.10454722
Li     -4.01695727     6.39714354    -5.96668089     0.36140066    -0.06290703     0.48931990
Li     -7.63943969     6.40693586    -9.84492647    -0.68660343    -0.20767683    -0.29524274
Li     -7.93827956     6.32969955    -5.84891501     0.11628842     0.56191172    -0.20562132
Ti     -1.93402077     2.31887865    -3.92170623    -0.72672809    -0.10354957    -0.45583472
Ti     -5.78117807     6.74660226    -7.86735848    -0.50795346    -0.81081223    -0.71424150
Ti     -7.70941549     4.40478754    -7.69352551     0.96143246     0.74920720    -0.56692010
Ti     -7.82683761     4.42963557    -3.74155061    -0.58683512    -1.09417017     0.54604326
Ti     -3.84937191     4.38165510    -7.84934698    -0.29254140    -0.14631100     1.08787745
Ti     -4.10639231     4.45155285    -3.83056666     0.26483127     0.70856164     0.34822603
Ti     -2.27617473     0.06277231    -2.13640480     0.77785131     0.56624665     0.65478288
Ni     -5.79126993     2.04668358    -7.89543424    -0.49655550     0.37835819     0.41898135
Ni     -5.91246592     2.16990123    -3.97430941    -0.38539824     0.94612942    -0.41668234
Ni     -9.74654794     6.32415226    -8.09955476    -0.44407147    -1.54491277     0.49004781
Ni     -9.79616159     6.62527059    -3.95237325    -0.46733528    -0.04054060    -0.16123080
Ni     -1.92204920     2.16913525    -8.00081039    -0.02773655     0.11001761     0.18270173
Ni     -5.96280769     6.78329054    -4.01346691     0.40712583    -0.17004100    -0.02975520
Ni     -5.94251249     8.70371559    -6.06129030    -0.10666842     2.23793028     0.66962223
Mo    -10.01932657     8.68145152   -10.25003617    -1.01581667    -0.24696320     2.38513404
Mo     -9.72307136     8.67818093    -6.34998062    -0.28803629     0.41199705    -0.06663427
O      -1.89180308     2.09018173    -2.05803809    -0.51459284    -0.76254808     0.46394843
O      -1.90852904     1.85035106    -6.10886529    -0.27698944     0.03411308     0.71593546
O      -5.85560578     6.93787434    -2.13127677    -0.02965029    -0.37500019     0.16369430
O      -5.94815322     6.88238495    -5.96041830     0.30368351    -0.80070282     0.49474594
O      -5.92671186     1.86701880    -9.78797869    -0.10981926    -0.46832537     0.13797496
O      -5.80292501     1.91011664    -5.95239194     0.02887815     0.04770467    -0.79598617
O      -9.92232101     6.73132643   -10.08102950     1.00482519     0.29112214    -0.24669276
O      -9.80289022     6.81724158    -5.80074700     0.70174665    -0.43047830    -0.17409556
O      -3.91520518     2.43449592    -3.96589767     0.80622759     0.52266880     0.27161015
O      -4.00700899     2.40808729    -7.90985127     0.99077093     0.44326121    -0.91337967
O      -7.85438040     2.40217853    -4.07070496     0.41449672     0.10627721     0.70675554
O      -7.65740473     2.45834645    -7.92394461    -1.33544507     0.09316898     0.16493790
O      -3.87471845     6.41439287    -4.01666447    -0.71093268    -1.68210151    -0.21034008
O      -3.85738899     6.50559731    -8.05024327    -0.33600362    -0.83549447     1.00684754
O      -7.93364747     6.34783144    -3.90452598     0.77575226     0.45351806    -0.06543523
O      -7.78163107     6.34762613    -7.86951635    -0.32533687     0.17830148    -0.80086636
O      -3.91664289     4.50976665    -2.03953839     0.12190321    -0.60740230    -0.39391153
O      -3.97849906     4.35332571    -6.02712597     0.32301834     0.81469501    -0.72802507
O      -7.69598476     4.46040436    -9.95143805    -0.71071792    -0.33010771    -0.19879720
O      -7.81834967     4.44563573    -5.93331891     0.44602811    -0.27487341    -0.37845292
O      -4.03992964     0.15076265   -10.01738275    -0.40938859    -0.71244169    -0.04923199
O      -7.87788617     8.70480761    -6.01500209    -0.14249470     0.13550405    -0.15906077
O      -7.52684900     0.06357999    -5.99331261    -0.76857550     0.12613780    -0.18277059
O      -3.96630197     8.65094032    -6.01767894     0.91130270     0.19366970    -0.39723721
O      -9.70578221     4.36784490    -8.02949869    -0.26388614    -0.68880394    -0.21753155
O      -1.91965431     4.06681538    -0.10143134    -0.54935493     0.13933533     0.51386191
O      -5.93518281     4.13728947    -3.96058008     0.50130985    -0.70338130    -0.50302776
O      -5.79393518     4.75145713    -8.16235783     0.08534339     0.17458806     0.84276938
O      -1.89495626     0.41028905    -3.95585495    -0.24942652    -0.33292774    -0.29587521
O      -5.87602201     8.59143593    -8.02885103    -0.01914908     0.59033628    -1.04272758
O      -5.89649329     0.28116196    -3.97187006     0.29504507     0.60088778    -1.60420528
O      -9.88447943     8.05268213    -8.12192716     0.92780936     2.40973161     0.02320422
