# total energy = -630.78006611 eV

CRYSTAL
PRIMVEC
        0.00285542     0.02004370    -7.95977623
       -7.82940539     0.00763210    -3.98158109
       -3.91729101     8.74642787     0.01461334
PRIMCOORD
56 1
Li     -4.08119945     2.42480288    -1.87534823     0.53801744     0.11065385    -0.51208697
Li     -4.07006269     2.32631473    -6.04274206     0.37132402    -0.09420369     0.43730975
Li     -7.76379664     2.23345995   -10.03763371    -0.49004072     0.22441212     0.40300417
Li     -7.81601973     1.88437524    -5.78037225    -0.12927658     0.21848290    -0.37054392
Li     -3.78503705     6.33388933    -1.90101583    -0.66510332     0.12288458    -0.22613091
Li     -3.92255990     6.73201896    -5.86156857     0.00951555    -0.15072719    -0.07383617
Li     -8.02975756     6.55298265    -9.77412629     0.29548450    -0.44558112    -1.14443858
Li     -7.77776952     6.63024370    -5.96595229    -0.05116029    -0.49685470     0.65235114
Ti     -1.97020711     2.03881192    -4.03335599    -0.44659140     0.09247256    -0.76458502
Ti     -5.88922700     6.53088990    -7.95478035     0.44053501    -2.17602601     0.53676211
Ti     -7.85990333     4.31779073    -7.73292656     0.04729503    -0.08619826     1.38936347
Ti     -7.67609152     4.39994508    -3.72686189     0.31250280     1.11037947    -0.35969456
Ti     -3.66784672     4.41175668    -7.69978553    -0.94293038    -0.54337172    -0.24556992
Ti     -3.88957671     4.41046081    -3.85465856    -0.59691303    -1.07406933     0.32790538
Ti     -6.12998231     8.68953271    -1.84944253     1.11593454     0.97760703    -0.72121500
Ni     -5.91711382     2.45909138    -7.87290183     0.80916579    -0.48705880    -0.92121252
Ni     -5.90816422     2.13569140    -4.02993530     0.55218741    -0.19930192     0.09046441
Ni     -9.81854348     6.52489091    -7.84604719    -0.06804451     0.40777518    -0.06234400
Ni     -9.74848125     6.49201855    -3.99552172    -0.16727835    -0.50059737     0.30639930
Ni     -2.02474275     2.18926640    -8.04558438     0.64473031     0.10755720     0.53980979
Ni     -5.82537750     6.77352786    -3.95415984    -0.51364931    -1.02182447    -0.39806007
Ni     -2.04228627     0.07314479    -6.04614875     0.00266934    -2.57783478     0.36694001
Mo     -5.95679232     0.13109015   -10.23333815    -2.13296443    -0.79832165     0.22931399
Mo     -9.74839249     8.63481641    -6.30337866    -1.13450027     0.29319397    -1.15638121
O      -1.97611363     1.89290036    -2.10892852     0.45420439    -0.54096146     1.32906248
O      -2.17288883     1.83094708    -6.05605516     0.88577730     1.17241928    -0.52767297
O      -5.64998241     6.85561975    -1.91232604    -1.46686893    -0.25224555    -0.80847486
O      -5.81728465     6.95133897    -5.88262356    -0.52204385     0.03547586    -1.05021774
O      -5.84548961     1.99594434   -10.12564236    -0.22400814     0.67023679     0.23217402
O      -5.91980611     1.82062790    -5.87981144     0.27039927     0.91055614     0.78710101
O      -9.82453922     7.01937707    -9.63422235     0.02039645     0.08342505    -0.34031420
O      -9.78187721     6.73990341    -5.97091168     0.44272461    -0.80368221    -0.19383935
O      -3.93710953     2.34726749    -4.04383318    -0.57530401     0.04244931     0.27672419
O      -3.91544709     2.49506582    -7.96162035    -0.44061130    -0.03060856    -0.23797817
O      -7.83827872     2.50375945    -3.93525288    -0.20132280    -1.31582749    -0.79335476
O      -7.79502500     2.33786325    -8.05495420    -0.71951253     0.62149730     0.57370536
O      -3.88727929     6.29350098    -3.97465926     1.63691794     1.61199471     0.15871010
O      -3.96578573     6.28618535    -7.88895116     0.70826782     0.96466205    -0.12391932
O      -7.91866503     6.38767968    -3.88984580     0.51571147     0.36428725    -0.02702727
O      -7.86765334     6.31956734    -7.99284988     0.04740570     0.21101695     0.84506828
O      -4.15032661     4.37016553    -2.09352098     0.92914244    -0.30091172     0.52761511
O      -3.91652171     4.33915174    -5.97262203    -0.35489798    -0.13825765     0.81687454
O      -7.70869468     4.40711357    -9.92868500    -0.47339230     0.07696062     0.64767322
O      -7.88595997     4.51621826    -5.95426872    -0.12522877    -0.36662963    -1.37418364
O      -3.97397674     0.10353861    -2.07518114    -0.45710459    -0.59625397     0.40508462
O      -7.95385472     8.63567956    -5.97287989     0.11452336     0.19019456    -0.29674759
O     -11.55718241     8.63901543    -5.99530068    -0.03992929     0.44947910     0.18255376
O      -7.79601141     0.14054379   -10.02539060     1.47223250     0.13337217    -0.61212625
O      -1.96927181     3.96893077    -4.04832377     0.06601340     0.31656332     0.03687242
O      -9.69135046     4.58943535    -3.93977951     0.20811466     0.35731823    -0.24571464
O      -5.86237939     4.92002467    -4.02408144    -0.00726137    -0.14261607    -0.44730085
O      -5.91218779     4.50092425    -7.89672424     0.19624326    -0.72380626    -0.00674954
O      -5.86758617     8.71507785    -4.12143952     0.12170003     1.08995537     1.67175651
O      -5.94151255     8.37037392    -7.96011136    -0.18175771     2.09812383     0.33686694
O      -9.74614452     8.28966099    -3.98246672    -0.16049197     1.03270003    -0.02197381
O      -5.86166888     0.56414057    -8.06834960     0.27109780     0.32173283     0.03558715
