# total energy = -630.75695930 eV

CRYSTAL
PRIMVEC
        0.00279571     0.02951795    -7.98606283
       -7.83802570     0.01298533    -3.99532603
       -3.92160916     8.71933433     0.00634407
PRIMCOORD
56 1
Li     -4.03022245     1.84214854    -1.88627207     0.36507697     0.31762454     0.16124608
Li     -3.86689580     2.21175046    -6.12960964     0.11605027     0.26239440     0.57658862
Li     -7.76392202     1.96727630   -10.00363305     0.01848306     0.61755522    -0.01864297
Li     -7.69856699     2.49766412    -5.95000629    -0.62750721    -0.13611730     0.14012944
Li     -3.83594874     6.46938183    -1.81911706    -0.47899730    -0.31306321    -0.61494956
Li     -3.96421366     6.31220258    -5.93978088    -0.12968543     0.21060561     0.19885958
Li     -7.92912953     6.48917809    -9.88095457    -0.01985576     0.12460907    -0.54138489
Li     -7.90717946     6.74466449    -5.89912406    -0.24064896    -0.39546205     0.08499949
Ti     -2.01970824     2.12190229    -3.97686270     0.40894334    -0.58437491    -0.04463322
Ti     -5.94778107     6.61448464    -7.83822795     0.94067776    -0.14053206    -0.84388833
Ti     -7.84960663     4.41591856    -7.86103878     0.22145147    -0.21546523     1.29998413
Ti     -7.91823175     4.41412061    -3.78922123     0.98812409    -0.48566779     0.85587452
Ti     -3.78871498     4.29326710    -7.76717257    -1.39325510     1.00604719    -2.22412625
Ti     -3.92357864     4.38412946    -3.66818621    -1.06652332    -0.79939098     1.15752005
Ti     -5.66218348     8.68415898    -1.94621968     0.21704884     0.68817109    -0.25253757
Ni     -5.91449881     2.23581394    -7.95775394     0.20233752    -0.26511254    -0.33289945
Ni     -5.75408321     2.35054926    -4.06782575    -2.32181303     0.54224307     0.14761401
Ni     -9.98175179     6.35636240    -7.91569399     1.63874629     0.59179922    -0.94827583
Ni     -9.94325228     6.63735739    -3.95930044     1.12610154     0.31651896    -0.03787731
Ni     -1.81476556     2.12085470    -8.01497092    -0.93673317    -0.58264696     0.28929890
Ni     -5.91868929     6.64029297    -3.92457745    -0.36386725    -0.49719489    -1.56916152
Ni     -1.93688860     0.07741896    -5.99491020     0.17165305     0.75720405    -0.11434655
Mo     -9.86693138     8.61651135   -10.32898512    -0.17707484     0.54371035    -0.55457974
Mo     -5.81220963     0.19463215    -6.36947680     0.37353037    -1.21792477     0.03628836
O      -2.08011929     1.88586055    -1.95368849     0.16230306    -0.27440170    -1.08684872
O      -1.83268351     1.90164669    -5.97495151    -0.70708152     0.15661243     0.02048284
O      -5.86459231     6.77938014    -2.12861992    -0.21238501     0.85874084     1.73329378
O      -5.90985189     6.97150071    -5.98662081    -0.52311603    -0.60002581     0.76122341
O      -5.86802250     1.84146963    -9.81766788    -0.59699928    -0.21666636     0.16382312
O      -5.88233400     2.08221206    -6.07962619     0.29958476     0.12084341     0.12701211
O      -9.92554729     6.70340530   -10.06963460    -0.11489608    -0.48799292     0.02599030
O      -9.87148928     7.00342180    -5.78861963     0.23295344     0.08026726    -0.11973779
O      -3.94607853     2.44404304    -3.96640853     1.95381292    -0.18035981    -0.28023718
O      -4.01707193     2.42586471    -7.98091230    -0.60883428    -1.05886073    -0.29533485
O      -7.77883377     2.40572149    -4.04244536     0.92833492     0.37106715    -0.03328260
O      -7.87592271     2.40445568    -7.89846030    -0.06354349     0.00329245    -0.45430798
O      -4.02737756     6.22672650    -3.94324788     0.01122724     1.52641062    -0.38927269
O      -3.95305312     6.44901425    -7.96098129    -0.15000885    -0.27988990     0.42542303
O      -7.97411413     6.36159664    -3.99332483     0.19330761    -0.43139979     0.27326299
O      -7.96417657     6.35686576    -7.98250108     0.59846319     0.45982673     0.31399428
O      -3.92015925     4.41810515    -1.88427636     0.05456178     0.22903804    -1.31619565
O      -3.93848812     4.33794728    -6.07227104     0.04841711     0.25103755     2.33536443
O      -7.74368350     4.28456557    -9.98232492    -0.10388669     0.50038695    -0.86317965
O      -7.90144430     4.40081538    -6.06132366     0.43347407    -0.01689087    -0.49061992
O      -8.09618633     8.52427847    -9.98078881     0.63034126     0.48539921     0.29794168
O      -4.01364686     0.19665409    -6.23310815    -0.43409212    -0.35732240    -0.00344775
O      -7.75787188     0.18271483    -6.09038244    -0.59090626    -0.24125030     0.11416200
O      -3.89946229     8.66754435    -6.11118795     1.03954046     0.27036611     0.31255979
O      -9.77687588     4.39445223    -8.09009842    -1.24056574    -0.18840977     0.23848282
O      -1.99106131     3.95532864    -8.01278432     2.58512561     0.37661489    -0.08395956
O      -5.82988327     4.31317314    -4.14732920    -0.71642496    -0.83200855     0.60271493
O      -5.81250123     4.79701498    -7.97367988    -1.47536208    -0.30598895     0.02232372
O      -2.18987765     0.24487431    -4.07618193     0.61149122     0.51905738     1.12226366
O      -5.79630038     8.74183892    -8.00282440    -0.24839109    -0.59774906    -0.95592237
O      -5.68802340     0.49027032    -4.11228606    -0.86092400    -0.49008991     0.09352084
O      -9.95050467     8.17283549    -8.05603703    -0.14490049     0.58788202     0.46720230
