# total energy = -630.71782542 eV

CRYSTAL
PRIMVEC
        0.00279571     0.02951795    -7.98606283
       -7.83802570     0.01298533    -3.99532603
       -3.92160916     8.71933433     0.00634407
PRIMCOORD
56 1
Li     -4.03141520     2.39581747    -1.91739055     0.12291787    -0.31621683    -0.15692170
Li     -3.91402078     2.15404222    -6.03143928     0.02799519    -0.16363382     0.30903123
Li     -7.84886668     2.42641377    -9.94160323     0.18358534    -0.13434552    -0.39175219
Li     -7.74557297     2.22166640    -5.99850420    -0.38690466    -0.02745299     0.53647955
Li     -3.82986219     6.55983181    -2.07170257    -0.19880724    -0.15374720     0.06444179
Li     -4.02228028     6.54919724    -5.79497468     0.14051591    -0.23791023     0.03437939
Li     -7.92179832     6.20372298    -9.80679468    -0.26989266     0.55523952    -0.97671674
Li     -7.80108863     6.89705476    -5.70250583     0.38581278    -0.22725487    -0.33682436
Ti     -1.93279891     2.17187196    -4.00393947    -0.13541234    -0.63254347    -0.20815575
Ti     -5.83554963     6.57172249    -8.01080769    -1.19139754     1.09009400    -0.09809598
Ti     -7.79079232     4.39511992    -7.70596154     0.01500826    -1.16657071    -1.06049471
Ti     -7.74544436     4.37761556    -3.79331652    -0.56709302     0.43052173     1.02040501
Ti     -3.82150884     4.35503160    -7.68315150     0.65698468    -0.85680366    -0.71426781
Ti     -3.96605230     4.25928778    -3.86099025    -0.35424553     1.53312424     1.48076041
Ti     -2.21617658     0.04040113    -1.97636657    -0.73709548    -0.62423838    -0.61085438
Ni     -5.86051008     2.38966200    -8.12961651    -0.13394437     1.19748365    -0.07283742
Ni     -5.89901352     2.17447570    -4.02291207    -0.04182929    -0.14517462    -0.50995664
Ni     -9.75531438     6.29046799    -7.85013810    -1.20319484     0.88149917     0.33088876
Ni     -9.93259300     6.52184417    -4.05348935     1.61895614     0.30007234     0.39815884
Ni     -2.06126604     2.25840837    -7.98967407     1.85873809    -0.47256579     0.36738685
Ni     -5.93430179     6.65216081    -3.98162512     0.53611765    -0.19857499     0.22059973
Ni     -1.85986492     0.09505506    -6.00024867    -1.07647263    -0.91729039    -0.22671098
Mo     -9.95203347     8.71193401   -10.14130454     0.13464926    -0.18997292    -0.76651594
Mo     -5.81098490     0.05301411    -6.42357900     0.00618894    -0.36967952    -0.52925066
O      -1.97464317     1.92322576    -1.90383223     0.10016795     0.44024660    -0.69381584
O      -1.82866006     1.93387145    -6.09942705    -1.20746462    -0.02803432     1.02292453
O      -5.72734323     6.84035547    -2.02326594    -1.12228261    -0.75658325     0.45617070
O      -5.89060481     6.90936874    -5.92468014     0.12403036     0.38841640    -0.30046841
O      -5.95063446     2.05815721   -10.17075300     0.51231541    -0.20643489     0.69987354
O      -5.84438720     1.89276450    -5.96124576    -0.03525205     1.06988408     0.86906107
O      -9.92540975     6.89284484    -9.72053742     0.45159697     0.14741135    -0.13684644
O      -9.60307179     6.91353367    -5.98804196    -1.34345177    -1.32974460    -0.19685148
O      -3.88498594     2.32734580    -3.91322574    -0.10096890    -0.84749635    -1.08197936
O      -3.93181574     2.41108029    -7.92456000     0.15286372     0.67557021    -0.51871789
O      -7.84178933     2.45099936    -3.97786849    -0.37853798    -0.02741505    -0.56788476
O      -7.87572230     2.38808084    -7.95468240     0.58790922     0.08260467    -0.12911112
O      -3.86101189     6.22543987    -3.93078558     0.49644848     0.42921979    -0.09677686
O      -4.04137763     6.28292128    -7.89378373     1.44670233     1.00071143    -0.33047106
O      -7.93500112     6.41992272    -3.89864382     0.39283654    -0.72236058     0.15975800
O      -7.87041413     6.26202337    -7.94540277     0.94767906     0.99677072    -0.18319449
O      -4.02442613     4.24610252    -2.08344869     0.31527682     0.49629351     0.20250275
O      -3.96181631     4.30134885    -5.94741810     0.11972665    -0.07674547    -0.11258192
O      -7.90398886     4.31752062    -9.93619947     0.29226247     0.50785936    -1.41159845
O      -7.91951588     4.33804683    -5.99558780    -0.07374353    -0.28109752     1.02379248
O      -7.98046493     8.67348705    -2.11426137     0.41929789     0.17808686     0.51190109
O      -3.95991054     0.04573150    -6.08628245     0.21854971     0.44770860    -0.00246416
O     -11.51172303     8.63302159    -6.15296114     0.34222405     0.33443744     0.02693411
O      -7.81774611     0.14805423    -9.93349752     0.53603943    -0.67660071    -0.31674782
O      -1.99779687     4.15785045    -4.12145939     0.59620741    -0.67132908     0.52571081
O      -9.78294859     4.68546625    -4.07526735    -0.66573739    -0.48700721     0.10880536
O      -5.90094370     4.45933450    -4.18802035    -0.37143118     0.09372119     0.52944316
O      -5.81090775     4.39388481    -8.07158214    -1.11885088     0.09375117     0.54335341
O      -1.89082387     0.13504414    -3.88057340    -0.16652783     1.16242960    -0.23880434
O      -5.85389315     8.48361618    -8.08343622     0.08153127    -0.67563737     0.68745144
O      -9.84897594     8.70382620    -3.99463318    -0.32308973    -0.06470512     0.15659448
O      -5.71079460     0.60625343    -8.24095573    -0.55391784    -0.57394103     0.94498986
