# total energy = -630.26496268 eV

CRYSTAL
PRIMVEC
        0.00279571     0.02951795    -7.98606283
       -7.83802570     0.01298533    -3.99532603
       -3.92160916     8.71933433     0.00634407
PRIMCOORD
56 1
Li     -3.91921706     2.13052179    -1.95973424     0.37418944     0.45945607     0.17318119
Li     -4.00431512     2.11271540    -5.88885535    -0.01893707     0.03312638    -0.70362240
Li     -7.58409762     2.19351253    -9.94074028    -0.80507418     0.07022447    -0.26729226
Li     -7.79067894     2.00923125    -5.85902975    -0.22809718     0.36587699    -0.05610916
Li     -3.86194502     6.45930493    -2.02032434    -0.52155346     0.07358868     0.27763703
Li     -3.81397945     6.39837249    -5.79916895    -0.65651684    -0.18853852    -0.68958460
Li     -7.75776288     6.56699974    -9.91353255    -0.84590475    -0.17284608    -0.13723380
Li     -7.86493041     6.33883393    -5.90340977    -0.28459229     0.21606216    -0.25882203
Ti     -1.84067591     2.17604503    -4.21398428    -1.29376240    -0.49825012     0.38238333
Ti     -5.81018794     6.50452210    -7.98856420    -0.07708586     1.79247349    -0.13054733
Ti     -7.77959590     4.40039107    -7.73984158    -1.55294250     1.06133405     0.14029934
Ti     -7.81615246     4.35818998    -3.59065989     0.01797621     1.20428224    -0.97819422
Ti     -3.73612423     4.33276341    -7.77097631     0.38268716    -0.05626329     0.11528664
Ti     -3.85957575     4.38438733    -3.69971463    -1.31384385    -0.21107676    -0.20592089
Ti     -2.21594008     0.00782535    -1.93782747     2.45395916    -0.11306206     0.29882665
Ni     -5.88429109     2.51348622    -7.99772764     0.71122829    -1.34128721    -0.33838933
Ni     -5.81441220     2.09559188    -4.01711546    -0.36095050     0.44084637     0.80404582
Ni     -9.84131815     6.62033598    -8.01219679     0.55926637    -0.40386632     0.62265416
Ni     -9.77010145     6.62383520    -4.02467970    -0.32094532    -0.77115537    -0.37655971
Ni     -1.74840690     2.34030471    -7.97615207    -1.45700125    -1.29725949     0.42401109
Ni     -5.93746958     6.55249922    -3.92707261     0.22487499    -0.18617322    -1.05595749
Ni     -6.09419934     8.58579901    -5.93392820     0.52396632     1.72252290    -0.61594224
Mo     -9.89941148     8.73994024   -10.22668976    -0.64268958     1.18751009    -0.79428834
Mo     -9.91096472     8.66445468    -6.50003646     1.03575665    -0.01762388     1.13540013
O      -1.83718876     1.84338999    -1.81198481    -0.31237910     0.78877451    -0.49245018
O      -1.94953695     1.77632823    -6.07018296    -0.18729165     0.34921362     0.72584988
O      -5.92043108     6.73306686    -2.04776938     0.53462360     0.15672921     0.85767955
O      -5.97344176     6.79857715    -5.87566662     0.23684134    -0.32959488    -0.13317574
O      -5.77082175     1.98170457   -10.06290553     0.20408378     0.15751763    -0.80965638
O      -5.95032623     1.82380875    -5.81482472     0.49897933     0.80129330    -1.24777182
O      -9.78005005     6.98539568    -9.78797777    -0.10812737    -1.80884876    -0.16761083
O      -9.85935493     6.76210782    -6.20797177     0.49139855    -0.13703877     1.47077182
O      -3.95966498     2.45584386    -3.98462338     0.60285824    -0.92758530    -0.21185263
O      -3.77760429     2.44203424    -8.03446385    -0.47100489     0.34819403     0.59854073
O      -7.70349178     2.49392518    -3.92016114    -0.43223956    -0.86348812     0.12095655
O      -7.82518507     2.48120640    -8.02783206     0.53311091    -0.93278337    -0.06607912
O      -3.87175798     6.37262038    -3.96741885    -0.31360816    -0.27860026     0.04928877
O      -3.89966211     6.39054746    -7.98066483    -0.32788512     0.18118223     0.11866425
O      -7.92311529     6.32793017    -4.04689843     0.90166092     0.24059542     1.08130573
O      -7.86088609     6.38243283    -8.02755756     0.23978457    -0.61669433     0.79184094
O      -4.01394479     4.35289500    -1.95194218     0.15755244     0.44031220     0.07063876
O      -3.86594558     4.41664266    -6.00300435    -0.44117503     0.05632801    -0.01593177
O      -8.11632993     4.46275822    -9.82969513     0.52359120    -0.27522946    -0.59662100
O      -7.97991802     4.38361819    -6.00806610     0.30485120    -0.06466224    -0.06605077
O      -7.86383366     8.65892953    -9.85325902    -2.13100434     0.62613895    -0.38750316
O      -8.08826980     8.71692289    -6.20837691     0.00816813    -0.11586417     0.31914818
O     -11.68098851     8.66672494    -6.09396877     0.24590176    -0.12535192     0.23364405
O      -7.71569070     0.15239291   -10.12146351    -0.35982491    -0.41660395     0.09700477
O      -2.04008449     4.06399676    -3.96773249     1.24435023    -0.18533776    -0.03327229
O      -9.75588769     4.66117827    -4.06164353     0.12719830     0.34014922     0.13310898
O      -5.93753001     4.49594513    -3.95890925     0.45498708     0.36102205     0.07502224
O      -5.89033637     4.49035866    -8.04128628     0.78441458    -0.18390921     0.51231630
O      -2.01519275     0.25427758    -3.88645098    -0.03810703    -0.17973023    -1.10016410
O      -5.92640968     8.44685372    -7.93886565     0.48873286    -1.62430454     0.07202999
O      -9.71259050     8.60830810    -4.03945339     0.17438123    -0.34143415    -0.54676811
O      -6.03067974     0.50609462    -8.22999743     0.47514216     1.61376310     0.88551914
