# total energy = -630.29052599 eV

CRYSTAL
PRIMVEC
        0.00279571     0.02951795    -7.98606283
       -7.83802570     0.01298533    -3.99532603
       -3.92160916     8.71933433     0.00634407
PRIMCOORD
56 1
Li     -3.92936539     2.51616395    -1.88708761    -0.05592014    -1.01815884    -0.08127494
Li     -3.90489834     2.03479647    -5.87384231    -0.09255711     0.32296338    -0.13924088
Li     -7.99683667     2.39770556    -9.82117591     0.49213961    -0.07894371    -0.66359650
Li     -7.83512911     2.16045548    -5.91612805     0.24373860     0.37243662     0.42538732
Li     -3.84845179     6.75534727    -2.17206872    -0.76736306    -0.22411600     0.48036067
Li     -3.74774668     6.53096527    -5.90076785    -0.79964935    -0.28917158     0.05592923
Li     -7.99200171     6.37819408    -9.90364890     0.59303224    -0.02117680    -0.14890537
Li     -7.83448583     6.58421017    -5.98791978    -0.33965942     0.04370564     0.22831514
Ti     -1.94367372     2.06849721    -3.87861213    -0.70612709     0.18145620    -0.46369560
Ti     -5.76362202     6.59498183    -7.98014621    -1.30870242     1.18382047    -0.34690307
Ti     -7.62552927     4.33467606    -7.69372696    -2.28048200     0.46417025     0.03356329
Ti     -7.88896402     4.34668500    -3.72218574     0.93423876     0.45666274    -0.33641233
Ti     -3.83508531     4.39019293    -7.69922091     0.95183754    -0.29048792     0.98169846
Ti     -3.90265175     4.47824292    -3.75209388    -0.33326033    -2.84792769    -0.59555616
Ti     -6.18438451     8.71126333    -1.98342892    -1.21051344    -1.34809566     0.19040035
Ni     -5.80496963     2.34275929    -8.04763971    -0.06729350    -0.86144820     1.95563162
Ni     -5.91352798     2.28713308    -3.97573186     1.15084906     0.36759948     0.20509204
Ni     -9.72824949     6.37288934    -7.86793643    -0.95075080    -0.82787071    -1.39420481
Ni     -9.76326144     6.71819059    -4.10252317    -0.04256458    -0.40782664     1.38294217
Ni     -1.94803059     2.12713217    -7.88819727     0.21149626     0.27876740    -0.33041088
Ni     -5.90836673     6.51994547    -4.13627110     0.38360500     0.05170055     1.38788956
Ni     -2.11868388     0.05434792    -6.01011105     1.00055801    -0.63044265     0.06532175
Mo     -9.99197598     8.73670112   -10.35186124     0.63262664     0.44804832     1.03729541
Mo     -5.92511690     0.14699615    -6.43385135     3.22828172     0.32138616    -0.08250828
O      -1.85388641     1.81109223    -1.94405960    -0.20135455     2.16179054    -0.01534069
O      -2.04262476     1.89878566    -5.98210674     0.31788158    -0.19497872     0.51115961
O      -5.94298352     6.80136264    -2.07504130     0.78982929    -0.31221827     0.62046668
O      -5.92671524     6.89546313    -5.93394379    -0.03199516     0.32730672    -1.36426607
O      -5.95040731     1.84866117    -9.80084921     0.14885503     0.00985146    -0.94569749
O      -5.78758231     2.02718594    -6.08513551    -0.50548748    -0.09381326    -0.08158667
O      -9.77901720     6.83709340   -10.12660461     0.15464788     0.25541954    -0.72528880
O      -9.86849001     6.79706300    -5.88355626     0.83606358     0.45222647    -1.01770027
O      -3.87174985     2.35985319    -3.84813271     0.47107682     0.07377115    -0.80659326
O      -3.89459525     2.44132787    -7.95558438    -0.57779312     0.18685716    -0.03020635
O      -7.78057540     2.39561121    -3.84285444    -0.54168702    -0.55354266    -0.70058719
O      -7.81622591     2.39603820    -7.90880395     0.06685360    -0.06458454    -0.44134243
O      -3.89999268     6.25514001    -4.03612575    -0.17409635     2.82006181     0.46514268
O      -3.95638272     6.44430412    -7.87114041     1.22765809    -0.16769192    -1.08107137
O      -7.74259680     6.32869017    -4.02520922    -0.91295052    -0.31040859    -0.03559546
O      -7.84556103     6.27789040    -7.95782052     0.56503029     0.13745483     0.20474165
O      -3.87940438     4.27939121    -2.02140015    -0.09371757     1.14604359     1.54454409
O      -3.96918161     4.53651380    -5.94347477    -0.25138828    -0.67659743    -1.02616299
O      -7.90551515     4.34253539    -9.95350253     0.31398896     0.26044188     0.86927251
O      -7.92134401     4.27259298    -5.96271509     0.13154594     0.11065900    -0.18660020
O      -4.05988963     0.08358656    -9.96632962    -0.10131701    -0.18385849    -0.11248761
O      -7.90816839     8.73984133    -6.21194104    -1.16084020     0.09835242     0.19703638
O      -7.58785702     0.11564236    -5.94887245    -1.47615596    -0.32307335    -0.08844513
O      -3.91410323     8.72259241    -6.14764547     0.28520050    -0.14748419    -0.09434272
O      -9.81701685     4.46645360    -8.11286040     0.90178800    -0.36058009     0.73432435
O      -1.95904318     4.21140979    -7.80887222    -0.19874812    -0.15398145    -1.03986559
O      -5.89399530     4.21030950    -3.98399279    -0.11278454    -0.28225578    -0.18250922
O      -5.81149583     4.60865947    -8.01612220     0.49196656     0.47760158    -0.11129014
O      -1.80134763     0.21990864    -3.88561544    -0.45694231     0.32934390    -0.61162786
O      -5.78810403     8.60938404    -8.12175647    -0.15071557    -0.80259496     0.77047252
O      -5.70309749     0.11382555    -4.16689394    -0.66377745     0.26880800     0.83107625
O      -9.91792809     8.21806256    -8.12472388     0.12430174    -0.01711807    -0.05748231
