# total energy = -630.50780916 eV

CRYSTAL
PRIMVEC
        0.00279571     0.02951795    -7.98606283
       -7.83802570     0.01298533    -3.99532603
       -3.92160916     8.71933433     0.00634407
PRIMCOORD
56 1
Li     -3.74903759     2.24896136    -1.95738649    -1.21583945    -0.00433016     0.11240963
Li     -3.98460579     2.23110458    -5.85426478     0.22949559    -0.13189465    -0.93329489
Li     -7.78557142     2.42930813   -10.07748167    -0.42689453     0.05773231     0.57039466
Li     -7.83122008     2.46761555    -5.99320637     0.12322018    -0.59489259     0.67303615
Li     -3.81396965     6.27730130    -2.07388063    -0.45039530     0.12577924     0.54454914
Li     -4.00466917     6.22698306    -5.82576225     0.42661232     0.02591129    -0.52087885
Li     -7.94311572     6.62305207    -9.96031378    -0.49876773    -0.38804034     0.06501882
Li     -7.83669197     6.70772212    -5.92520146     0.33547641    -0.30216257     0.17839017
Ti     -1.96737268     2.09370654    -3.91681707     0.78893713    -0.57126096    -0.50691334
Ti     -5.78741641     6.53369613    -7.92183593    -0.04901192     0.23064404     0.40317763
Ti     -7.87263180     4.40146349    -7.78529519     0.28277480     0.09992111     1.48063744
Ti     -7.78248031     4.46814664    -3.78270758     0.82672883     0.02889531    -1.07360525
Ti     -3.69927944     4.20051061    -7.87909808     0.58964080     1.62974556     1.73633186
Ti     -3.93626024     4.32142928    -3.87033009    -0.68276915    -0.08691926     0.29402717
Ti     -6.15174745     8.60708829    -1.96852345    -0.16671290     2.34306102     0.90356697
Ni     -5.86191681     2.37128303    -7.99651962     0.00262896    -0.71039563    -0.00873513
Ni     -5.83336332     2.18931365    -3.95946801    -0.59557684    -0.17413209    -0.87666028
Ni     -9.87695949     6.53760195    -7.92906005     0.86875488     0.85197760    -0.54518755
Ni     -9.80909896     6.57749819    -4.09076565    -0.44868071    -1.47777999     0.73375857
Ni     -1.90346437     1.91713225    -7.91798938     0.12633388     1.07223280    -0.37129873
Ni     -5.80191321     6.82828133    -3.93455147    -0.93196072    -1.76920013    -0.76875770
Ni     -1.97005168     0.04757017    -6.07070578    -0.17054641     0.24945588     0.68313140
Mo     -6.03982371     0.19695565   -10.34053050     0.71204213    -0.99390761     2.41306466
Mo     -9.82637320     8.65986360    -6.30440188     0.17429772     0.64604518    -1.18348308
O      -1.99142060     1.84691459    -1.93723192     1.15058890     0.34005208    -0.16759218
O      -1.96710326     1.85633012    -6.06210065    -0.23225781    -0.00260092     0.12481469
O      -5.93814243     6.80417073    -1.99391127     0.31174024    -1.86600840     0.54416352
O      -5.78727814     6.96553107    -5.91105726    -0.24518097    -0.83089721    -1.08292874
O      -5.79574451     2.07369789   -10.04063409    -0.16546852     0.43880593    -0.20216415
O      -5.85394626     1.92103630    -5.93235883    -0.45741080    -0.18649266     0.97692518
O      -9.96360252     6.93898963    -9.74646046     0.55269518     1.06842707    -0.98843857
O      -9.74331775     6.68027207    -6.08483904    -0.15985753     0.51989557     0.57825502
O      -3.84390173     2.23114943    -4.02397302    -1.61803793     0.69626771     0.78052406
O      -3.88211551     2.37205249    -7.99290102     0.12300907    -0.43912155     0.05365391
O      -7.85150881     2.50307387    -3.97524988     0.71729436    -0.62528578    -0.24648007
O      -7.90172124     2.42771261    -7.99251692     1.20989565    -0.30640561    -0.07240403
O      -3.85093745     6.33371878    -3.97794546     0.43218819    -0.43709941     0.56294538
O      -3.95353178     6.29538693    -8.03802281    -0.01270692    -0.13197334     0.06277543
O      -7.96683034     6.39998415    -3.96947684     0.54335445     1.32941740    -0.21668112
O      -7.84525273     6.30611929    -7.94998371     0.12340331     0.64048503    -0.21129408
O      -4.03487888     4.22461640    -2.03637584     0.09606708     0.35445459    -0.33894337
O      -4.00912143     4.26160637    -5.98462295     0.25188183     0.09414918    -0.85418106
O      -7.98811483     4.43169793   -10.04052182     0.08901816    -0.26858297     1.85359214
O      -7.96014450     4.31949590    -5.97935734    -0.03577665     0.38733454    -1.48204896
O      -4.04735668     0.12425442    -9.98498146    -0.23349325    -0.73020641    -0.16047612
O      -7.90252195     8.68599865    -6.04950448    -0.32212259    -0.18736877     0.14977401
O     -11.60269422     8.61756098    -6.08283485     0.67681136    -0.01663593    -0.16396566
O      -7.73871560     0.34391175   -10.01305937    -1.17229577    -0.53908885     0.05799939
O      -2.01665329     3.96909193    -3.95102453    -0.06187326     0.87607808    -0.28604414
O      -9.73809254     4.80677414    -3.98480729    -1.53880688    -1.61557561    -0.30969276
O      -5.88921146     4.91305390    -4.01394616     0.25115140     0.24322845    -0.04155163
O      -5.90437986     4.44306112    -7.89663982     0.14143498     0.00540199    -0.54033602
O      -1.95044794     0.03631172    -3.81095599     0.38335610     0.14334316    -1.66515948
O      -5.65642660     8.55392098    -8.06000570    -0.66911816    -1.22061725     0.26346929
O      -9.97096092     8.36528454    -4.05209536     0.54397420     0.65356996    -1.21912521
O      -5.76942836     0.44548521    -8.07996518    -0.62999046     0.98427669     0.17114506
