# total energy = -630.76736466 eV

CRYSTAL
PRIMVEC
        0.00279571     0.02951795    -7.98606283
       -7.83802570     0.01298533    -3.99532603
       -3.92160916     8.71933433     0.00634407
PRIMCOORD
56 1
Li     -4.04040974     2.25380133    -1.91664642     0.35943433    -0.30661468     0.10816755
Li     -4.01763554     2.33638000    -5.96733529     0.28631352     0.08650186    -0.30285035
Li     -7.74935850     2.41422313    -9.94546660     0.20600045    -0.48599360     0.06533878
Li     -7.90974934     2.15531118    -5.85395911     0.12594834    -0.14732863    -0.31770502
Li     -3.78337344     6.46431971    -1.81498213    -0.80439726     0.03957314    -0.82577098
Li     -3.86383822     6.31584085    -5.79042254    -0.52364582     0.05794032    -0.93670484
Li     -7.77761209     6.29353646    -9.95950572    -0.46525282     0.06096010     0.04463163
Li     -7.92437482     6.48220487    -5.91058502     0.15604246     0.02496127     0.09298107
Ti     -1.91849918     2.22172945    -4.16528348    -0.15411778    -0.36562231     0.24236937
Ti     -5.85741941     6.66914674    -7.94240285    -0.31311739     0.44785707     0.21833720
Ti     -7.73289807     4.37770018    -7.66262310     0.03952050     1.64407036    -0.99928035
Ti     -7.84942217     4.26200965    -3.74365779     0.25316830     0.88651343     0.34325440
Ti     -3.83760478     4.36464659    -7.82773929     0.85281194    -0.33436923     1.61873050
Ti     -3.83955382     4.38532967    -3.64229230    -1.93795151     0.33184877     0.21804132
Ti     -2.18297224     0.01571455    -2.10179947    -0.03710425     1.54283850     0.11402487
Ni     -5.85882297     2.24981334    -7.89350541     0.11140724    -0.70573115     0.36759316
Ni     -5.88647199     2.31240483    -3.98573141     0.68837227     1.15526156    -0.26265030
Ni     -9.83546938     6.37902182    -8.06534251     1.26354285    -1.73868074     0.36531960
Ni     -9.87033243     6.71278122    -3.97940961     2.10381854    -0.30871806    -0.41584276
Ni     -1.94098431     2.01786415    -7.97997147    -0.28447173     0.60258877    -0.81850163
Ni     -5.99119605     6.66862858    -4.00055820     0.46491495    -0.45263176    -0.00071352
Ni     -2.09807403     0.05714255    -6.02424135     1.28744107     0.94791550     0.36980031
Mo     -9.93506602     8.64646845   -10.26673658    -1.18259527     1.51547164     1.76929715
Mo     -5.86863877     0.03479473    -6.41733789    -1.52566218     0.82247548    -0.35675071
O      -2.09005722     1.94576111    -1.89891202     1.17757513     0.35251322    -0.25841687
O      -1.93091520     1.93647652    -6.12003455    -0.26842720    -0.35449864     1.58085107
O      -5.97688585     6.85709754    -2.01640581     0.76300756    -1.06482127    -0.12197323
O      -5.85851924     6.97389724    -5.96278100    -0.58699956    -0.50741076     0.23804360
O      -5.89337111     1.83011472    -9.66289476    -0.32410121     0.27683817    -0.90386114
O      -5.89667393     1.99543562    -6.06370565     0.02361746    -0.16310802     0.71994589
O      -9.84491869     6.76010781   -10.12485071     0.64917350    -0.36613225     0.16294718
O      -9.85503885     6.88097283    -5.87440277     0.39892558     0.03435530     0.82272728
O      -3.82817084     2.43896509    -4.07130000     0.00603239     0.52118291     0.59850990
O      -4.03237482     2.41218102    -7.98245463    -0.13864163    -0.02588970     0.54001750
O      -7.78213855     2.31463963    -3.97767638     0.41751153     0.25217668     0.22022473
O      -7.76279782     2.52045458    -7.83062376    -1.09179571    -1.09394700    -1.08687989
O      -3.88949364     6.27268882    -3.99752014    -0.77433522    -0.05148995     0.85923138
O      -3.79702355     6.41517583    -7.91936446    -2.09013938     0.06315133    -0.32458342
O      -7.86945334     6.25934540    -3.99468588    -0.24859122     0.45767694     0.24234156
O      -7.85508275     6.39070907    -7.91072721     0.35844021    -0.29415458    -0.38615883
O      -3.89852415     4.37329454    -1.85009465     0.26259341     0.28156065    -1.54215658
O      -3.72963979     4.42773742    -6.04390370    -0.63316769    -0.30335377    -0.35197293
O      -7.84326459     4.38380607    -9.93226480     0.14169880    -0.19381730    -0.52112718
O      -7.62261876     4.45074574    -5.95422486    -0.40106832     0.03983546     1.30221968
O      -3.96406860     0.19849335    -2.14573916    -0.92866789    -1.40886302     0.09947561
O      -4.08582262     0.11835582    -6.00607044     0.14218402    -0.20160978    -0.23292973
O      -7.74955616     0.16707340    -6.27566596     1.71359460    -0.61097517     0.79057070
O      -7.78456533     0.11682217    -9.99889568     0.87901172    -0.77299030    -0.48973925
O      -9.76586437     4.44540698    -7.97581541     0.42680468    -0.77931540     0.28609550
O      -1.88431950     3.89878321    -8.01098173    -0.40267774    -0.06016661    -0.26738447
O      -5.84869907     4.20758396    -3.89392930     0.44641384    -0.68346782    -0.40227874
O      -5.81815464     4.77358936    -8.00173139     0.01007186    -0.05034225     0.06702879
O      -1.80335031     0.41706951    -3.97132233    -0.58901404    -0.36137994    -0.83879494
O      -5.88581129     8.65779490    -8.09017149     0.12173593     0.09373382     0.25409431
O      -5.82523375     0.48254102    -3.94105894    -0.34262736    -0.22634625    -2.01392558
O      -9.73690334     8.10138991    -8.17613865     0.01293274     2.34988232     0.49143997
