# total energy = -630.63209447 eV

CRYSTAL
PRIMVEC
        0.00279571     0.02951795    -7.98606283
       -7.83802570     0.01298533    -3.99532603
       -3.92160916     8.71933433     0.00634407
PRIMCOORD
56 1
Li     -3.89343510     2.23011227    -2.00064004     0.65999798     0.41609868     0.40361675
Li     -3.95800146     2.05289084    -5.80610070    -0.07506630    -0.08668589    -0.94291358
Li     -7.92230061     2.31831129   -10.04523623     0.63586629     0.07008325    -0.08678229
Li     -7.84757399     1.95058439    -5.81691182     0.13419853     0.46481056    -0.12966614
Li     -3.90971860     6.43139863    -1.91645325    -0.01648194    -0.07382626    -0.32137586
Li     -3.93083372     6.51373409    -5.84477342     0.24734402     0.08159973    -0.32244187
Li     -7.85121010     6.50890107    -9.99321937    -0.41259648    -0.14588711     0.29376737
Li     -7.74938628     6.42443704    -5.84475293    -0.38567172     0.32133550    -0.48596359
Ti     -1.92667058     2.16589895    -4.05212112     0.04706276    -0.35662660     1.26552785
Ti     -5.91446941     6.52622198    -7.98381204    -0.43060312     0.59740694     0.58981831
Ti     -7.96019497     4.32530790    -7.70973393     0.15821984     1.40047859    -0.98945010
Ti     -7.92199382     4.42910927    -3.76608122     1.20181998    -1.31162892    -0.13459160
Ti     -3.84339414     4.42982629    -7.69423560     0.24798571    -0.37688144     0.79013226
Ti     -4.03241212     4.42490191    -3.88235043     0.09797526    -0.78120061     1.25236785
Ti     -6.08646840     8.62898297    -2.02956939     0.51861553     2.17106446    -0.06105158
Ni     -5.86418675     2.51781173    -8.11207620     1.01700862    -0.75241588     0.67861970
Ni     -5.82574490     2.13187725    -3.95783182    -0.49879206    -0.02533586    -0.32140114
Ni     -9.92962071     6.66649331    -7.89494574     1.29849857    -0.19737220    -0.85377476
Ni     -9.79654329     6.51638404    -4.09975351     0.23794851     0.45925281     0.31863295
Ni     -1.95950594     2.03685836    -7.83172438     0.68288991     0.28764878    -1.09316923
Ni     -5.83762965     6.56745852    -4.00925672    -0.75089122    -0.08988326     0.17353443
Ni     -5.92745443     8.69686425    -5.95230235     0.03086631    -2.22524438    -0.09409315
Mo     -5.96520030     0.08489754   -10.27560334     0.13185892    -0.00750007    -0.79911190
Mo     -9.79659956     8.73256790    -6.36054128     0.04198383    -0.32108884    -0.59319695
O      -1.92875109     1.89387593    -1.78604074    -0.20393355    -1.28622276    -0.71376474
O      -1.96898031     1.74290259    -5.86678995    -0.06859799     1.58362390    -2.34987131
O      -5.96739920     6.77019728    -2.01421619     0.70539225    -0.80346896     0.40342122
O      -5.86455493     6.84387144    -6.01095284    -0.03617970     0.21383576     1.10115708
O      -5.71880069     2.00233775   -10.09236433    -0.73764361     0.35635897    -0.13194041
O      -5.88279962     1.87723126    -5.81739388    -0.20536188     0.28089101     0.03787835
O      -9.76450913     6.93795847    -9.84845622    -0.41432277     0.11470483     0.90920656
O      -9.83843404     6.70178398    -6.08028817     0.56541732     1.07382569     0.69743550
O      -3.85132822     2.37098202    -4.00227485    -1.01160526    -0.12474105     0.28163962
O      -3.78138502     2.55616890    -7.88167978    -1.22829980    -0.27531664    -0.20356894
O      -7.86345560     2.32966149    -3.98801251     0.28046536     0.57978984     1.05108032
O      -7.70870082     2.44884384    -8.16909891    -1.21932118    -0.26506508     0.56473602
O      -3.96330633     6.38936358    -3.87093222     0.61838659     0.31072683    -0.86325994
O      -3.97896421     6.37332466    -7.95356079     0.46803020     0.10625373    -0.50141336
O      -7.82079446     6.39928005    -3.96607718    -0.15025677    -0.45489412    -0.37650587
O      -7.87414312     6.34275938    -7.86936092    -0.67706414    -0.61714728    -0.43261990
O      -3.79261081     4.38209855    -2.11606754    -0.29551572     0.03592203     0.37070659
O      -3.58492757     4.56448156    -5.91646811    -0.77784718    -0.11919110    -0.88936193
O      -7.65623794     4.37027683   -10.00566283    -0.75256993     0.04806640    -0.07561053
O      -7.86876267     4.05018142    -6.02242098     0.11595893     0.75448930     1.42638100
O      -7.86925677     8.71216347    -2.08305630     0.12349745     0.07739783     0.02566561
O      -4.05648981     0.06610590    -6.06664151     0.15031372    -0.81659510     0.17373290
O     -11.61091392     8.62359623    -6.20884597    -0.14881186     0.34325933     0.85592893
O      -7.69894657     0.12723327   -10.20457309    -0.86099940    -0.05659270     0.67987872
O      -1.99858908     4.02184212    -4.08170628     1.08541903     0.46813709     0.18212577
O      -9.74769171     4.64994566    -4.08155523    -1.00955356     0.22728994     0.15055163
O      -5.90201187     4.58472037    -4.05495477    -0.12566096    -0.05568694    -0.48190530
O      -5.91907268     4.53612031    -7.80119070     1.37978197    -0.97836111    -0.63916828
O      -1.80583470     0.20044104    -4.04318787    -0.52443003    -0.85662602     1.15329570
O      -5.97075396     8.40747679    -7.89732158     0.16595281     0.44719800    -1.24329324
O      -9.75265899     8.43715313    -4.09249692    -0.02279145    -0.48260073     0.17137547
O      -5.82651190     0.62153315    -8.14513895     0.03852614     0.19364027     0.05190836
