# total energy = -630.77455515 eV

CRYSTAL
PRIMVEC
        0.00285542     0.02004370    -7.95977623
       -7.82940539     0.00763210    -3.98158109
       -3.91729101     8.74642787     0.01461334
PRIMCOORD
56 1
Li     -3.82883987     2.40033461    -2.08972939    -0.13213203    -1.13694928     1.01571134
Li     -3.93333324     2.25045350    -5.98236334    -0.14650577    -0.48317926     0.00669504
Li     -7.71204753     2.14901656    -9.92906889    -1.10018373     0.40548705     0.25367321
Li     -7.85700515     2.16125086    -5.81704580     0.45659480     0.02888477    -0.01963195
Li     -3.74961129     6.57023786    -1.99558152    -1.26861888    -0.21924046    -0.04353152
Li     -4.00593459     6.52690288    -5.81971263     0.28546999     0.06371663    -0.16058336
Li     -7.92049625     6.48629376    -9.84321508     0.16008467     0.21058686    -0.45299041
Li     -7.86699116     6.46892175    -5.99564304    -0.01918047     0.30470312     0.33484255
Ti     -1.96983034     2.31597013    -4.07061962     0.12286876    -0.96944636     0.01141184
Ti     -5.78898676     6.64089859    -7.99545422    -0.90652701     1.82031313    -0.09855938
Ti     -7.78474264     4.38499843    -7.62181213     0.13777140    -0.93050849    -0.28305564
Ti     -7.75881883     4.41560502    -3.66091153    -0.91844044    -0.43403860    -1.01128845
Ti     -3.83522551     4.29518529    -7.72279952     0.78136918     1.15790063     0.02267251
Ti     -4.06181023     4.36582509    -3.82005775    -0.04869282     0.98964818     1.22265867
Ti     -6.02718936     8.73845952    -2.13034352    -0.99390497    -0.69848782     1.22953701
Ni     -5.85782451     2.34211993    -8.02193670     0.30462404     0.81303935     0.40496417
Ni     -5.90880766     2.14742075    -3.90812588     0.61427195    -0.40153144    -0.78384425
Ni     -9.75465147     6.63236082    -7.94701747    -0.49290834    -0.31709883     0.86254053
Ni     -9.75159456     6.51385353    -3.97099854    -0.09170125    -0.09622238    -0.08560205
Ni     -1.95060958     1.99491273    -7.93641043     0.40136096     0.28878609     0.10843471
Ni     -5.99514204     6.75763129    -3.99208488     0.52379837    -1.74726857    -0.15256439
Ni     -5.98953794     8.70776559    -5.94225443     0.51942571    -0.28108024    -0.59418995
Mo     -6.03013379     0.11644205   -10.24580070     0.83067613    -0.74510776     0.02424053
Mo     -9.76150529     8.74086092    -6.33551218     0.64678185    -0.08588695     0.35230408
O      -1.88025699     1.88106422    -1.97290779    -0.21699501     0.31884346    -0.18438053
O      -1.94547751     1.75827463    -6.03882241    -0.19137604     1.19957085     0.80133811
O      -5.90046159     6.75939307    -1.98336658     0.45472144     0.38885129     0.36114744
O      -5.93361660     6.92249788    -5.97385229    -0.26180177    -0.93824743    -0.02179626
O      -5.88188757     2.05447649   -10.03565760     0.24998822    -0.43772710     0.25027216
O      -5.82686975     1.85990052    -5.79282595    -0.71958932     0.29342857    -0.03658504
O      -9.80197672     6.95418282    -9.80083288     0.27915837     0.06420863     0.12036841
O      -9.84322816     6.82914402    -5.94213296     1.80633595    -0.52032494    -0.85182148
O      -3.92165905     2.22573076    -3.96492463     0.37041063     1.04464939    -0.17753355
O      -3.82481732     2.46380402    -8.03173098    -0.26003662    -1.52500358     0.25406862
O      -7.81079198     2.44878473    -3.84153939    -0.16872016    -0.28320310    -0.72678190
O      -7.84643214     2.34311332    -7.84124706     0.02707440     0.87101940    -0.77422844
O      -3.73221834     6.29845109    -3.96121255    -0.51387235    -0.22088470     0.10524614
O      -3.99175407     6.37853919    -7.80940548     0.90483204    -0.82395164    -0.70686258
O      -7.87529596     6.34384599    -4.09457406    -0.26750218     1.06462683     1.10079771
O      -7.88449673     6.22762168    -8.01454802     0.66587164     1.55246595     1.01393345
O      -3.95043215     4.14322445    -2.00413343     0.06161352     1.56069321    -1.54275293
O      -3.95494076     4.13867325    -5.96161592    -0.02831727     0.30633306     0.83266563
O      -7.74470693     4.55786893    -9.90366171    -0.19776926    -0.75935401     0.95285850
O      -7.87580608     4.55019762    -5.88662409    -0.20567250    -0.96521705    -0.48735625
O      -3.91907006     0.03293438    -9.88202500    -0.37839164     0.12789783    -0.70797083
O      -7.90826256     8.73468181    -5.97167412    -0.63355360    -0.33693713    -0.64582490
O     -11.53413970     8.63708941    -6.04834605    -0.52994840     0.57109039     0.06062675
O     -11.69991409     8.71475566    -9.97677884     0.56651883     0.84361140    -0.23075215
O      -1.95755139     4.14062407    -4.03830496    -0.19295373    -0.62083530    -0.11557637
O      -9.76914361     4.70973518   -11.75181795    -0.34266242    -0.36574157    -0.70849232
O      -5.91115011     4.75560315    -4.02009364     0.93400549     0.46527310    -0.19546014
O      -5.87449679     4.29811062    -7.92634975     0.24544527     0.27221295     0.00063889
O      -5.75466212     8.73801183    -3.98046609    -0.46045816     0.22953884    -0.01341301
O      -5.69607524     8.58538475    -8.01303706    -0.50260661    -1.41971725    -0.26999458
O      -9.71559461     8.39945080    -4.01304681    -0.22633618    -0.15253113     0.25323199
O      -5.84395305     0.56921551    -8.12851530     0.04014229    -0.90116264     0.15885204
