# total energy = -630.89945730 eV

CRYSTAL
PRIMVEC
        0.00285542     0.02004370    -7.95977623
       -7.82940539     0.00763210    -3.98158109
       -3.91729101     8.74642787     0.01461334
PRIMCOORD
56 1
Li     -3.77063228     2.31873365    -1.96156898    -0.82055268     0.16087028     0.08934015
Li     -3.99330586     2.37376585    -5.98021535     0.30742031     0.04723478     0.14934470
Li     -7.83843581     2.52056530    -9.98582822     0.09662224    -0.64432059    -0.12752425
Li     -7.96305746     2.08070033    -5.96195505     0.88888017     0.34903055    -0.04536557
Li     -3.97004880     6.46885890    -1.99798119     0.53456129     0.15969408     0.27144750
Li     -4.02547209     6.34022926    -5.86881220     0.53725630     0.49305781     0.02182316
Li     -7.82402435     6.32171859    -9.93534838    -0.29305080     0.23562590     0.00362637
Li     -7.91804143     6.45845463    -5.89448690     0.47867261     0.22533838    -0.03959219
Ti     -1.96015802     2.10874711    -4.07139199    -0.20740261    -0.41886290     0.10387343
Ti     -5.88555377     6.54132607    -7.90633839     0.83487640     0.29351600    -0.02351018
Ti     -7.88911577     4.37566232    -7.83330709    -0.05236360    -0.47887119     0.94163985
Ti     -7.80076296     4.43787316    -3.89967014     0.16813086    -0.76515445     0.13830698
Ti     -3.72941423     4.50908408    -7.75417631    -0.44310014    -1.26013507    -1.95052186
Ti     -3.99659491     4.36879499    -3.81074417     0.25293451    -0.52328256     1.09995706
Ti     -6.16899236     8.70923591    -1.92347314    -0.25513276    -0.05270653    -0.66539519
Ni     -5.81094199     2.42816325    -7.95447717     0.17091763     0.53279596    -0.75157858
Ni     -6.00789889     1.84897360    -3.94040762     1.49724236     1.62194107     0.52232292
Ni     -9.80419342     6.73100038    -7.83757562     0.01019123    -0.11047105    -0.12696528
Ni     -9.66811102     6.49992654    -3.97055145    -0.57095894     1.77138727    -0.53782231
Ni     -1.91780725     2.13456748    -7.98988280     0.12557740    -0.13591570     0.46502858
Ni     -5.76068175     6.54519202    -3.91705929    -1.15116467     0.61782957    -0.65778645
Ni     -6.06244281     8.68826238    -5.92761073     1.32109430     0.19412525    -0.05887773
Mo     -6.05615863     0.10935469   -10.19580316     1.63086732    -0.75164194     0.22420473
Mo     -5.84434565     0.10630041    -6.25511597    -0.39728088    -1.62737925    -0.76081308
O      -1.96059687     1.87209548    -2.04021738     0.34712710     0.10074730     0.65665630
O      -1.97099947     1.81094575    -5.99663884    -0.50966086    -0.20167868    -0.32149637
O      -5.92303301     6.76213812    -1.93981274     0.11777631    -0.00292622     0.08412484
O      -5.92482330     6.86089434    -5.92964795     0.26721996    -0.03012387    -0.01386837
O      -5.79515732     1.97991152    -9.99602097    -1.05069071     0.58365222    -0.76900392
O      -5.86249424     1.93292094    -5.74038577    -0.27513711     0.47883418    -0.74344255
O      -9.69454036     6.93700777    -9.68375035    -0.54947813     0.45455666    -0.56288510
O      -9.75807555     6.85192058    -5.99641522    -0.30590575    -0.11419841     0.20920501
O      -3.95254316     2.43282454    -3.93201044     0.20288982    -1.39244294    -0.84652883
O      -3.84567819     2.52528066    -7.94754920    -0.16574718    -0.04492453     0.13925424
O      -7.79919015     2.43839209    -4.06449324    -1.06346899    -0.55116192     0.59907518
O      -7.79730140     2.39077441    -8.01196491     0.04758746     0.33576389    -0.11815169
O      -3.86998114     6.35004029    -3.95259309     0.71846433     0.22659119     0.05096304
O      -3.91272679     6.41970714    -7.94292586     0.20160063     0.07972528     0.17712255
O      -7.72282100     6.36765601    -4.03726598    -0.43523454    -0.17214183     0.73046073
O      -7.78167955     6.31855834    -7.78083149    -1.32940813     0.22899899    -1.28751663
O      -3.85072132     4.26366387    -2.05144668    -0.27009142     0.93709018    -0.12628185
O      -3.87277121     4.44946755    -6.03502147     0.06860647    -0.33075078     1.67365525
O      -7.93149722     4.34218623   -10.06478177     0.19921121     0.47458899     0.39661935
O      -7.76127388     4.21366856    -6.08664119    -0.50172089     0.24968074    -0.10761383
O      -4.01825645     0.10642601    -2.09033884     0.99977066    -0.31230122     0.68746003
O      -7.94508505     8.70839250    -5.86342819    -0.09285217     0.22450799    -0.79213710
O     -11.53677308     8.70593687    -5.96954160    -0.00979549     0.24912031     0.04271625
O      -7.75588157     0.13750868   -10.11236394    -1.70057840    -0.50255127     0.35120940
O      -2.03533768     3.97441695    -4.10449367     1.41277546     0.64128576    -0.00339636
O      -9.73123767     4.69560232    -4.21990637     0.58933131    -0.58210777     0.35796471
O      -5.87948684     4.53000775    -4.08711651     0.07506247     0.81883260     0.12866113
O      -5.79979924     4.53088794    -8.04975288    -0.65832007    -0.55689580     0.10169072
O      -5.71612206     8.74796298    -3.86864085    -0.32077282     0.41060511    -0.60578767
O      -5.87532957     8.46338536    -7.96895670    -0.35638274     0.01567505     0.12119127
O      -9.64087203     8.46956097    -4.01294590    -0.60928913    -0.94186438     0.75710269
O      -5.86827216     0.63133646    -8.07777405     0.33306266    -0.93975913     0.78467305
