# total energy = -629.96462692 eV

CRYSTAL
PRIMVEC
        0.00279571     0.02951795    -7.98606283
       -7.83802570     0.01298533    -3.99532603
       -3.92160916     8.71933433     0.00634407
PRIMCOORD
56 1
Li     -3.99233402     2.48040935    -1.86354512     0.22711036    -0.73378201    -0.60236602
Li     -3.84596202     2.27588777    -5.96337335    -0.51705551     0.03887114    -0.03098085
Li     -7.79899054     2.35692127    -9.84804392    -0.32753957     0.00901881    -0.70455127
Li     -7.92133154     2.29512561    -5.79329704     0.88527028     0.06053504    -0.22244254
Li     -3.79878192     6.32855054    -1.95464737     0.03533269     0.21635447    -0.24994773
Li     -4.08097360     6.55010081    -5.78373764     0.33001140    -0.17733248    -0.80036323
Li     -7.92324972     6.28613384    -9.94739682    -0.18933212     0.39871653    -0.42181124
Li     -7.80317006     6.41708673    -5.80559020    -0.28814268     0.19404820    -0.17686426
Ti     -1.92790031     2.10429743    -3.96730329    -0.80357526     0.27519337     0.40203064
Ti     -5.77583550     6.58159685    -8.00748516    -0.50295962     0.02065030     0.50051888
Ti     -7.86520107     4.47620178    -7.75565464     0.46026978    -0.11752033     1.07405064
Ti     -7.86240668     4.39777044    -3.80875304     0.22625644    -0.43874739    -0.03367881
Ti     -3.75776432     4.40986792    -7.78244615    -0.06756766     0.16657553     1.25162412
Ti     -4.00291253     4.36937268    -3.77007440     0.85805460    -1.04717992    -1.63341387
Ti     -5.92738999     8.68010600    -1.99547121    -1.20775851     0.68201173     0.23097447
Ni     -5.94026872     2.28602647    -7.96774487     0.89922500     0.09028519     1.91636615
Ni     -5.92114583     2.14389601    -3.96799022     0.77898037     0.21372159    -0.27992084
Ni     -9.89873227     6.35406657    -8.06454232     1.25106598     1.70405552    -0.24074088
Ni     -9.79069903     6.74899885    -4.04007488     0.36625480    -1.02233801     0.82941160
Ni     -1.93966971     2.06439778    -7.87318517     0.35136691    -0.06697739    -0.46061626
Ni     -5.96335398     6.53058555    -3.85832293     1.32868628    -0.07930196    -0.80979239
Ni     -5.94349598     8.70768230    -5.95887374     0.38041660     0.78285959    -0.43985984
Mo     -5.98556583     0.04991881   -10.23262503     0.02444431     0.19120712     0.75549984
Mo     -5.82755403     0.09090597    -6.43132739    -0.37873187    -0.19319289    -0.17561644
O      -1.83968846     1.95406864    -1.95865919    -1.15405630    -0.55058445     0.51257769
O      -1.95266548     1.84574488    -5.92381078    -0.10114183     0.35630142    -1.02436529
O      -5.86194539     6.69042658    -1.97695257     0.21049778     1.21610678    -0.59196113
O      -5.98750515     6.87147849    -6.04266403     0.12954735     0.20453997     0.56603782
O      -5.91757077     1.90845432    -9.70239582     0.05120114    -0.38312097    -1.72363268
O      -5.88496832     1.93320591    -6.06833990    -0.10164955     1.03098981     0.43281651
O      -9.89506794     6.78290573   -10.08161203     0.03504335     0.76243983    -0.45399074
O      -9.70503464     6.84743833    -5.88322842    -0.35376619     0.56774931    -0.70807189
O      -3.90967235     2.32332592    -3.96006241     0.05786524     0.72658981     0.02571777
O      -4.00743104     2.54512846    -8.04273486     0.29833602    -0.95790571     1.04962506
O      -7.81839418     2.36355958    -3.81287976    -0.10808488     0.47151922    -0.99010988
O      -7.85328207     2.37791428    -7.97973537     0.10978665     1.27145271     0.45837346
O      -3.99737951     6.25472500    -3.99841641     0.25701773     1.24355573     0.73540359
O      -3.89698619     6.39133833    -7.96456114    -0.12953215     0.34151058    -0.41906302
O      -7.77600603     6.39320232    -3.81271227    -0.61779539    -0.03590989    -1.02952370
O      -7.86831808     6.34262187    -8.18317002    -0.76057513    -0.25997204     1.87001703
O      -3.84617428     4.33549067    -2.05543249    -0.40624684     0.39781235     2.25555378
O      -3.93843394     4.45565602    -6.00298249     0.50839445    -0.52027967    -1.22447966
O      -8.05812941     4.37237903   -10.04954123     0.56082238    -0.40597285     0.86128098
O      -7.85090875     4.43352681    -5.93266022     0.15027028    -0.31476831    -1.71781978
O      -3.99849431     0.03668247    -2.05097506     0.42474419    -0.19099098     0.11014272
O      -3.96222930     0.16801547    -6.12910553    -0.53430233    -0.49618525    -0.25099715
O      -7.68574490     0.07796012    -6.22906022     0.84007960    -0.50083027     0.17084178
O      -7.82860572     0.09124163   -10.07647758     1.22853254    -0.59483347     0.48399060
O      -9.83491795     4.47668200    -7.95203906     0.62301067    -0.75672213    -0.53400459
O      -9.75246178     4.70164762    -4.13944801    -0.26755225    -0.04384999     0.27692603
O      -5.78784423     4.37200348    -4.15820598    -3.39891031    -0.92587907     0.69028420
O      -5.92362304     4.67759889    -8.13489727     0.42285944    -0.33826359     0.52259752
O      -1.94913012     0.28931088    -3.93248944    -0.01832709    -1.07806271    -0.02808199
O      -5.50856595     8.53444716    -8.09946065    -1.45750334     0.12570245    -0.46976561
O      -5.87963451     0.10930789    -4.08860229    -0.08004304    -0.20158376    -0.17415748
O      -9.72585933     8.27867704    -8.18827254    -0.50480316    -1.24016484     0.76454902
