# total energy = -630.49245226 eV

CRYSTAL
PRIMVEC
        0.00285542     0.02004370    -7.95977623
       -7.82940539     0.00763210    -3.98158109
       -3.91729101     8.74642787     0.01461334
PRIMCOORD
56 1
Li     -3.98369828     2.28009302    -1.78090084     0.53195005    -0.20212867    -0.35927315
Li     -3.94508112     2.07218840    -5.98591342    -0.23885874     0.21167079     0.02204125
Li     -7.71610905     2.06054113   -10.11747192    -0.45922439     0.38065528     0.69487301
Li     -7.78318237     2.30911561    -5.83037115    -0.46669829    -0.11922820    -0.18490094
Li     -3.87070428     6.41839572    -2.07370505    -0.87726065     0.30859479     1.25840200
Li     -3.91060952     6.57925451    -5.60120037    -0.05103953    -0.16694890    -1.31569628
Li     -7.77861226     6.43466065    -9.88499805    -0.50413244     0.01015977     0.04079874
Li     -8.02916835     6.55626546    -5.89133304     0.81732521     0.19860102    -0.02028846
Ti     -1.90899004     2.19853732    -4.10402103    -0.45552441     0.14677016    -0.02421023
Ti     -5.93701083     6.79945783    -7.82513175     1.16965486    -1.05012441    -0.09737737
Ti     -7.72706911     4.37674565    -7.66012242     0.46939661     0.47093521    -1.69543973
Ti     -7.75856769     4.38789957    -3.69894546    -0.19463156    -1.03431267    -0.36155380
Ti     -3.78582771     4.47415388    -7.74452181    -0.40638806    -0.07285260     1.24474121
Ti     -3.86417454     4.31554166    -3.71767746    -0.91712933    -0.01161874    -0.45485486
Ti     -6.03629165     8.72273027    -2.18766240     0.13951463    -0.23436063     0.56591009
Ni     -5.86498054     2.36013741    -8.01016086    -0.03854346     0.37661643     0.19321823
Ni     -5.92364980     2.26978529    -3.98926329     0.79531991    -0.27030616    -0.93014312
Ni     -9.75669916     6.58036988    -7.84339650    -0.86256866    -0.10534688     0.38048250
Ni     -9.70953819     6.40797147    -4.06893074    -1.47830036     2.29813014     0.24094114
Ni     -1.93639697     2.20237098    -7.89348588    -0.29353668    -0.48112637    -0.65839397
Ni     -5.91597618     6.36166193    -3.88903770     0.11638876     0.63231614    -0.65735241
Ni     -1.97045315     0.01625628    -5.90718058    -0.60705928    -0.41435985    -0.42134211
Mo     -5.92984023     0.02859544   -10.33368903     1.33654699    -0.75086802    -0.69611287
Mo     -5.98169218     0.05762005    -6.37317754    -0.95200626    -1.83616021     2.27141122
O      -1.86842920     1.80320306    -1.82029377    -0.37840709     1.04102785    -0.61231837
O      -1.96059639     1.97582914    -6.02967208     0.28865980    -1.03517713     1.03850183
O      -5.91814483     6.79350348    -1.99480535    -0.41611808     0.05708352     0.54691664
O      -5.93665612     6.89271572    -5.77312338     0.50889775     0.18356878    -0.89963435
O      -5.79532714     1.92517306   -10.09683835    -0.78731667     1.23759201     0.51916621
O      -5.92870110     1.92991330    -5.90495900    -0.06254249     0.43238851     0.48683667
O      -9.70712094     7.01353141    -9.69593101    -0.32102597    -0.48818329     0.23794351
O      -9.90908827     6.79625474    -5.91619338     0.96009491    -0.08522344    -1.66341167
O      -3.97576786     2.35646687    -4.03216023     0.98906330     0.25225808     0.19237859
O      -3.93004206     2.52450124    -7.83543687     0.62611954    -0.69701715    -0.82229489
O      -7.82932965     2.36076648    -3.96702763    -0.18623020     0.93663504     0.23216604
O      -7.82966437     2.46986500    -7.89548544     0.01816075    -1.16714272    -0.79677167
O      -3.91540968     6.26198751    -3.85633633     0.68063604     0.29623732    -0.53746244
O      -4.05672290     6.44431833    -7.98823265     0.68130387    -0.70941443     0.62194129
O      -7.86588469     6.29988835    -4.04037459     0.97538864     0.39215460     0.68701806
O      -7.83177548     6.38227263    -7.88387046    -0.35982994    -0.51168305     0.24433056
O      -4.03228714     4.35729718    -1.96725144     0.55897318    -0.26517678    -0.26615134
O      -3.76568346     4.43807163    -5.98505729    -0.33016209     0.51950632     0.40790172
O      -7.84776422     4.46308070    -9.92320432     0.22324919    -0.18077108     1.02112527
O      -7.72322619     4.36106278    -5.95801864    -0.68133542     0.16804051     1.12730709
O      -3.98305397     0.15654457    -2.05600346     0.53576643    -0.57604770     0.20233468
O      -8.13098744     8.68945319    -6.07855937     0.27581456     0.08797913    -0.10333447
O      -3.90634335     8.63644265    -1.89867137     0.79782492     0.45151360    -0.84972294
O      -7.67527735     0.11284533   -10.27380619    -1.22286816    -0.08357056     0.89561270
O      -1.93251631     4.07507861    -3.88824101    -0.26879439    -0.03102013    -0.09239374
O      -9.67044603     4.62077707    -3.93163884    -1.23641645    -0.69350612    -1.05593188
O      -5.91003192     4.31907975    -4.15947408     1.54099098     0.19515906     0.76379064
O      -5.78320845     4.30995901    -8.00400625    -1.15132195    -0.26251247     0.33811426
O      -1.98715067     0.15273745    -4.04391643     0.44407530     1.15526264    -0.28664334
O      -6.05796155     8.54687310    -7.83165882     0.32406571     0.89496662    -0.00275127
O      -9.71990300     8.41764348    -4.12626182     0.21272056    -0.40086714     1.24271102
O      -6.08921646     0.50795359    -8.08195906     0.23752789     0.59464976    -1.91948407
