# total energy = -630.70698127 eV

CRYSTAL
PRIMVEC
        0.00279571     0.02951795    -7.98606283
       -7.83802570     0.01298533    -3.99532603
       -3.92160916     8.71933433     0.00634407
PRIMCOORD
56 1
Li     -3.97963522     2.16982051    -1.77384644     0.25686523     0.52261827    -0.42198223
Li     -3.83433954     2.31805462    -5.84587425    -0.00670497     0.03651199    -0.85561558
Li     -7.92055613     2.27118286   -10.05371303     0.51052417     0.00828723     0.36570556
Li     -7.81537666     2.09227456    -5.99154477    -0.17936176    -0.13052896    -0.00811344
Li     -4.00335838     6.53806826    -1.88273190     0.66546172    -0.03563159    -0.66952450
Li     -3.86506600     6.55859492    -5.93668932     0.11508729     0.11159530     0.16859293
Li     -7.90112108     6.63491018   -10.01498172     0.69977963    -0.44331552    -0.10110784
Li     -7.87301704     6.53467659    -5.98638669    -0.09392853    -0.03866187     0.39938263
Ti     -2.03866367     2.06735506    -3.91801339     0.75263487     0.55244148    -0.78777267
Ti     -5.94585506     6.56462067    -7.89921068     0.68801465     0.50993223    -0.03655776
Ti     -7.87146184     4.29136688    -7.76236945     0.25840729    -0.08129737    -1.46580810
Ti     -8.03848505     4.35696808    -3.78776706     0.92089129     0.60283964     0.08344929
Ti     -3.94462102     4.45388544    -7.66971478     0.10560552     0.39894470    -2.83461421
Ti     -4.01656520     4.50533725    -3.73418434     0.48991723    -1.47139674     0.78892334
Ti     -5.97472841     8.66588195    -1.99356668     0.34580252    -1.08735149     0.50228884
Ni     -5.78719701     2.31448887    -7.80797886    -0.64909187    -0.24858000    -0.63004230
Ni     -5.95688798     2.39786473    -4.07303398     0.68578036    -0.97655133     0.53568975
Ni     -9.73319074     6.36274972    -8.05229639    -0.07211624     0.51868587     0.24435324
Ni     -9.82215910     6.60014707    -4.06333816     0.19959444    -0.38905200     0.36712016
Ni     -1.96243835     2.20353270    -8.03259677    -0.30834209    -0.22752810     0.77099468
Ni     -5.90178747     6.55713344    -4.04910072    -0.36672468    -0.05884261     1.46944487
Ni     -5.84328100     8.70385131    -6.04889646    -0.26339285     0.24678890     0.67961763
Mo     -5.86717110     0.05527934   -10.24179236    -1.25465410     0.34314714     1.54182498
Mo     -5.79015409     0.10722429    -6.36837824    -0.95235075    -1.26735036    -0.42138289
O      -2.09038883     1.85210333    -2.01105957     0.59150715     1.18823257     0.52778009
O      -1.89824901     1.82035233    -6.13417793    -0.27801221     0.23406663    -0.03977482
O      -5.90498229     6.76990030    -2.05101274     0.06302474    -0.00628406    -0.27176728
O      -5.85627432     6.84351488    -5.82269417     0.02172833     0.11471274    -2.41482831
O      -5.78560745     1.93524019    -9.78715774    -0.79391255    -1.09156932     0.11976326
O      -5.86062607     1.99481053    -5.93148454     0.49784127     0.26134554    -0.63261688
O      -9.69439376     6.73286557   -10.11016523    -1.13051639     0.41883179     0.02054813
O      -9.81491920     6.82812376    -5.89883350    -0.05187279     0.43641571    -0.96380513
O      -3.85223529     2.40533236    -3.99114018    -1.22816900     0.29695233     0.23714926
O      -3.89319799     2.55126046    -7.87072246    -0.07795071    -1.30781936    -0.40481429
O      -7.89508130     2.41650535    -4.18073949    -0.04304096     0.32554579     1.00382060
O      -7.89957523     2.30843064    -7.92034519     0.87008560     0.97759577    -0.03454393
O      -3.87412586     6.33483576    -3.97500924    -0.04333646     0.92303326    -0.37412625
O      -3.96122630     6.43099949    -8.02111959    -0.04280016     0.24397195     0.98924670
O      -7.87763365     6.32895365    -4.07816531     0.59124275    -0.18108977     0.47970727
O      -7.77124743     6.40178071    -7.94720789    -1.63143653    -0.94318322    -0.48632811
O      -4.02118827     4.47395779    -1.98499629     0.52573207    -0.51003120    -0.06952385
O      -3.87574496     4.38783467    -5.98453247    -0.05433729     0.19371623     2.92671895
O      -7.89771224     4.33157596   -10.01512006     0.18179492    -0.02556102    -0.03780751
O      -7.79003271     4.48873649    -6.07053190     0.11402286    -0.33128774     1.75638763
O      -7.88269118     8.61772755    -2.08893599     0.10677419     0.50137123    -0.05788981
O      -7.92708124     8.70709089    -6.10328564    -0.61155402     0.56830434     0.48817755
O      -7.68782116     0.10707049    -6.02491821     0.09092892    -0.22219051    -0.35289174
O     -11.58553066     8.62888790    -9.99016712     0.25392344     0.50940847    -0.23764315
O      -9.74817552     4.28170980    -8.02529704    -1.06624137     0.63570209     0.10442327
O      -9.87785164     4.58517098    -4.08845941     0.18085841     0.18865610    -0.14619747
O      -5.88933782     4.20135852    -3.90280882    -1.11829178     0.53549287    -1.06102747
O      -5.87255696     4.62794912    -7.95306772    -0.10039384    -0.37767121    -0.22647292
O      -1.99457611     0.22929529    -4.06248545     0.13175247    -0.24571598     0.47010765
O      -6.12979815     8.49341882    -8.01102057     1.30376524    -0.07267160    -0.69130942
O      -5.91120891     0.04878888    -4.01529604     0.36264754    -0.12481867    -1.29767177
O      -9.67303324     8.26780344    -8.14279935    -0.34179335    -0.72065979     0.96207709
