# total energy = -630.83421380 eV

CRYSTAL
PRIMVEC
        0.00279571     0.02951795    -7.98606283
       -7.83802570     0.01298533    -3.99532603
       -3.92160916     8.71933433     0.00634407
PRIMCOORD
56 1
Li     -3.90528997     1.97742617    -1.86503599    -0.37923481     0.28948863    -0.01051800
Li     -3.99487419     2.25752743    -6.01381329     0.31826473     0.29004874     0.21329302
Li     -7.80407928     2.41099481   -10.12493044    -0.04777974    -0.11902297     1.08539146
Li     -7.66157552     2.36014486    -5.83359721    -0.67648893     0.10883622    -0.35091271
Li     -3.95249341     6.60830900    -2.11779952     0.13053343    -0.07744452     0.42571464
Li     -4.03618913     6.42384310    -5.88202952     0.29647313    -0.20845491    -0.40016293
Li     -7.85309810     6.54522143   -10.00723038    -0.24472758     0.20994320     0.29864279
Li     -7.83494913     6.60267068    -5.96619531     0.06314451    -0.05422854     0.04790437
Ti     -1.93813569     2.37198319    -4.07209632     0.47936827    -0.81244389    -0.16537523
Ti     -5.86761044     6.55348799    -8.10242814     0.31150230     2.21571942     0.63346534
Ti     -7.74083069     4.45996071    -7.73147757    -0.30616174    -0.70898750    -0.31275097
Ti     -7.90545410     4.53546052    -3.75202988     0.66116159    -0.55648719    -0.53359585
Ti     -3.78670158     4.41976048    -7.76227549     0.40767132    -0.05224706    -0.43697986
Ti     -4.17747957     4.23245052    -3.59797996     0.40124107     2.02620349    -0.49414436
Ti     -1.82608521     0.10231996    -2.12481615     0.76868987    -1.12720084     0.51604880
Ni     -5.78608757     2.07792098    -7.96044100    -1.32062405     0.20543295     0.85467191
Ni     -5.99499752     2.22059098    -3.83195042     0.24570444    -0.00575013    -1.23225455
Ni     -9.92498587     6.32608011    -8.00869641     1.43634785     0.70108777    -0.44139485
Ni     -9.80229621     6.67598351    -4.05596108    -0.20457410     0.26003109     0.41737214
Ni     -1.97145389     2.12949274    -7.99052143     0.03589925    -0.01936052     0.15314342
Ni     -5.88162174     6.64452844    -4.02843132     0.28498226     0.00597276    -0.24182108
Ni     -1.79948511     0.02646418    -5.96024314    -1.27881538     0.73002435    -0.16362190
Mo     -9.87704149     8.65351982   -10.30051511     0.58343276     1.05817236     1.29630282
Mo     -5.79264982     0.04865811    -6.31175972    -1.32534387     1.37977697    -0.92543267
O      -1.97497890     1.92527572    -2.09389776    -0.31575261     1.85651917     0.59598285
O      -1.86991706     1.90107460    -5.97994581    -0.49797453    -0.16506551     0.16701868
O      -5.94300365     6.82868323    -1.98969486     0.44385386    -0.25112785    -1.19530658
O      -5.85188778     6.94112325    -5.97547375    -0.12039756    -0.07482941     0.35449911
O      -5.90276883     1.92692302    -9.80635670    -0.17250847    -0.16926174    -0.59820399
O      -5.85454585     1.97840269    -5.97450103    -0.13637304    -0.76394317    -0.56313306
O      -9.86452796     6.77999541   -10.05839850    -0.04347051    -0.72405767    -0.51852496
O      -9.89224892     6.85606720    -5.95750147     0.33452072    -0.84798158     0.78802858
O      -3.93743836     2.43755573    -3.98994921     0.31900186    -1.01573946     0.12878532
O      -4.01960516     2.47477790    -7.95245136     1.07955791    -0.99727079    -0.15040505
O      -7.91492108     2.45410275    -3.95958358     0.97043269    -0.39739082    -0.12312893
O      -7.76992875     2.52676233    -7.93353755    -0.65235166    -0.66352693    -0.47807952
O      -3.92655440     6.19072746    -4.04396663    -1.21984466    -0.07959491     0.81480428
O      -3.91553842     6.45484243    -7.96735745     0.22524238    -0.32989244    -0.35265742
O      -7.75991483     6.48568425    -3.98983256    -0.93825007    -0.48303976    -0.26050904
O      -7.88234413     6.35198849    -8.01461847    -0.27838131     0.25084016     0.30617827
O      -4.02024944     4.32662091    -1.85393037    -0.03227962     0.28711177    -0.57602943
O      -4.07925709     4.35716789    -6.06206820     0.38816516     0.13080510     0.94203640
O      -7.88387506     4.49343767    -9.99216809     0.38623342    -0.05929119     0.77463777
O      -7.76028887     4.37873789    -5.99885000    -0.38985593     0.54536333     0.63570645
O      -4.14709489     0.07285430    -9.93741637    -0.57048931    -0.33341890    -0.71327663
O      -4.08750853     0.02580390    -6.12869611     1.77786868     0.11664418     0.41405273
O      -7.81788898     0.10939439    -6.02969728     0.17114559    -0.31304091    -0.41421946
O      -7.79004412     0.13582947   -10.02873320     1.15318060    -0.62394587    -0.02204417
O      -2.01981003     4.30706997    -4.03608744    -0.03585000    -0.13658948     0.25319291
O      -1.85243045     4.09009227    -7.93259065    -2.44773141    -0.20358379    -0.61452054
O      -6.00747211     4.11295780    -4.01497430     0.47422800    -0.09159349     0.41852422
O      -5.83028618     4.74410183    -7.93790275    -0.44647218    -0.66596200    -0.43765608
O      -2.12668289     0.32000009    -4.00143456     0.42191390    -0.05111033    -0.49471109
O      -6.03881285     8.66742309    -8.16580529     0.44233481     0.39636722     0.90009202
O      -5.92209260     0.16074469    -4.11541416    -0.02446505     0.76101352    -0.27717669
O      -9.82232817     8.24661714    -8.05711051    -0.87154048    -0.76130234     0.06369162
