# total energy = -630.88698155 eV

CRYSTAL
PRIMVEC
        0.00279571     0.02951795    -7.98606283
       -7.83802570     0.01298533    -3.99532603
       -3.92160916     8.71933433     0.00634407
PRIMCOORD
56 1
Li     -3.97727912     2.39349964    -1.95046650     0.23860259    -0.30964270     0.11465603
Li     -3.99245500     2.37547651    -5.94327106    -0.01256683     0.22288139    -0.09705939
Li     -7.85774332     2.14180052    -9.87755052    -0.24987670    -0.31416691    -0.07231066
Li     -7.78421562     2.42715492    -5.86798925    -0.69930412     0.23184470    -0.81288123
Li     -3.82983387     6.53334226    -2.01893300    -0.23036168    -0.29286815     0.47546378
Li     -3.71869355     6.54669353    -6.06103819    -0.94283576    -0.00572451     0.43173699
Li     -7.80926089     6.62846355   -10.01232374    -0.04304543    -0.05180606     0.02472108
Li     -7.83128353     6.48367855    -5.95743766    -0.26761502    -0.11673633     0.39369740
Ti     -2.00923467     1.87726933    -3.96808598    -0.07890518     0.68223568     0.35316107
Ti     -5.98637503     6.37166519    -7.96778936     1.06674492     1.80359259    -0.27245942
Ti     -8.21277513     4.42921565    -7.82019857     1.15050041     0.30856656     1.25653416
Ti     -7.79823321     4.25221748    -3.60014680     0.25260883     1.46041360    -1.70919343
Ti     -3.77656004     4.39950418    -7.77159875    -0.07538799     0.26891166    -0.25127834
Ti     -3.95981474     4.31870482    -3.76461920    -1.07211055     1.66669354     0.30912699
Ti     -5.66586490     8.68359089    -1.77934485    -0.15202606     0.10880085     0.39437032
Ni     -5.94456124     2.43151007    -8.13691664     0.46243081     0.82765103     0.68887112
Ni     -6.06191574     2.11102941    -3.99515136     0.90172528     0.14233958     0.13986219
Ni     -9.87495040     6.80322028    -8.04663506     0.80455921     0.23343367     0.39042957
Ni     -9.68217094     6.39629349    -3.96843434    -0.86929186    -0.43416405    -0.37064334
Ni     -1.99038325     2.13482583    -7.84924212    -0.77438746    -0.53132844    -0.82115342
Ni     -5.76266630     6.52376591    -4.06585210    -0.95153001     0.01104927     0.20413249
Ni     -5.88666552     8.66066200    -6.00078882     0.35659057     1.58665709     0.21733164
Mo     -5.85072860     0.10305350   -10.39718311    -0.53039749    -0.25274305     0.93702314
Mo     -5.79699522     0.13545147    -6.32548103    -0.01387600    -1.08749052    -0.30195486
O      -1.97528843     1.88832129    -1.95629235    -0.26764312    -0.13016752    -0.42403493
O      -1.98857961     1.85340052    -5.90038603    -0.15085755    -0.35788553    -1.12225249
O      -5.82336495     6.71894793    -1.92671819    -0.41286683     1.18460396    -0.41682595
O      -5.88128963     6.89316204    -6.00551963     0.13593811    -0.97986869     0.23442582
O      -5.95447719     2.01479718   -10.16879901    -0.16316826     1.05588958     0.95948353
O      -5.97532138     2.02681918    -5.79103924     0.70076683    -0.77344649    -0.75156866
O      -9.74306717     6.85094147    -9.92211947     0.28459612     0.12873810     0.37541113
O      -9.82354529     6.89785100    -6.19442884     0.10967423     0.33326847     0.46316033
O      -3.98021565     2.42101014    -3.94469793    -0.52383498    -1.21652311    -0.10818636
O      -3.94916148     2.50183878    -8.03148049    -0.46896006    -0.47665587     0.11419402
O      -7.99768990     2.33793910    -4.04656980     1.30918824     0.53362818     1.27287587
O      -7.93176552     2.48336494    -7.94945456     0.43694969    -0.32903474    -0.18623794
O      -3.82628862     6.42961392    -3.92191702    -0.80054342    -0.66548064    -0.87762282
O      -3.94043768     6.29045971    -7.97002094     0.56348734     0.79466893    -0.07638255
O      -7.80663954     6.22911327    -3.93547659     0.11965589     0.36155433    -0.20732653
O      -7.88470794     6.52263953    -7.98270972    -0.61935834    -0.87469617    -0.17605346
O      -3.89234049     4.51785698    -1.99836747    -0.31109231    -0.82301813    -0.31684889
O      -3.97002186     4.38344202    -6.04108189    -0.06080430     0.08094377     1.13240084
O      -7.83329445     4.47963734    -9.86481398     0.30296193    -0.46095954     0.86034474
O      -7.98576127     4.47304134    -6.05121353    -0.00137803    -0.07164266    -0.85492271
O      -4.05966824     0.13187112    -2.14613095     0.08042347    -0.50068391     0.36456918
O      -7.96897345     8.68990826    -6.08212987    -0.06547489     0.69006913     0.34825653
O      -7.76149101     0.07639176    -5.94351799     0.45789545    -0.24242775    -0.47134806
O     -11.62299615     8.70913468   -10.01714919     0.69096919     0.40246215    -0.07509396
O      -2.14716907     4.10120595    -4.08897405     0.89516116    -0.55640973    -0.27039970
O      -9.72285044     4.50981902   -11.85553256     0.31497612     0.44334243    -0.35286277
O      -5.90938893     4.57864732    -4.10334934     0.16900380    -0.00678588     0.30510750
O      -5.93403585     4.61280003    -7.94424526    -0.29566099    -2.94079486    -0.29894225
O      -1.94783171     0.02374143    -4.01927453    -0.07840981     0.01635740     0.25257246
O      -5.87913477     8.56860194    -7.94568271    -0.15916070    -0.23785029    -0.23838538
O      -9.79079275     8.24370447    -4.09688275     0.11710857     0.14595498    -1.41428464
O      -5.79436175     0.63734635    -8.09627863    -0.65948325    -0.48570802     0.39482363
