# total energy = -630.60185918 eV

CRYSTAL
PRIMVEC
        0.00285542     0.02004370    -7.95977623
       -7.82940539     0.00763210    -3.98158109
       -3.91729101     8.74642787     0.01461334
PRIMCOORD
56 1
Li     -4.04652063     2.31679999    -1.96502014     0.48381646    -0.27788781     0.31225939
Li     -4.00601842     2.18000049    -6.07753621     0.20585625    -0.02611506     0.32326691
Li     -7.92906435     2.23583987   -10.02297161     1.18567659    -0.20627272     0.03608763
Li     -7.80240676     2.26142146    -6.01711576    -0.37828920    -0.24125027     0.58141633
Li     -4.04674352     6.39635040    -1.99878041     0.48046778     0.04027152     0.64048988
Li     -3.80368319     6.60945056    -5.93818701    -0.44176215    -0.02566313     0.48121536
Li     -7.90438879     6.37269255    -9.75251662     0.24812620     0.58051963    -0.12471397
Li     -7.90109614     6.39926894    -5.89588036     0.32451433    -0.01974222     0.49617709
Ti     -2.07144995     2.33732115    -4.00690620     0.61465244    -1.03435698    -1.01263628
Ti     -5.92246853     6.81733139    -7.92601701     0.51730016    -0.53224732     1.04152365
Ti     -7.71300333     4.28580340    -7.71032744    -1.82581527     0.94215604    -0.06505044
Ti     -7.75352794     4.46115757    -3.61547750     0.25945770    -1.50037042    -2.51227189
Ti     -3.92528786     4.38425020    -7.64465016     0.89391311     0.02762791    -0.32018289
Ti     -3.99116883     4.40698213    -3.74870263    -0.10753268     0.00668310    -0.33315074
Ti     -5.86450644     8.72601407    -2.32696183    -0.24215403     0.15965317     0.06514094
Ni     -5.86875352     2.41052461    -8.01373250    -0.28821347    -2.11329527    -0.38966325
Ni     -5.81436636     2.24354122    -4.04928419    -1.37016704    -0.84260023    -0.37824093
Ni     -9.76385372     6.47675892    -7.75387886    -0.01338804    -0.37584501    -0.78623758
Ni     -9.72912565     6.44030205    -3.92185822    -0.53549013    -0.10612212     0.12734340
Ni     -1.93483616     2.44969945    -7.98846659     0.32647287    -1.42321394    -0.06471435
Ni     -5.90819463     6.65843057    -3.88486450     0.27619650    -0.41440820    -0.78016298
Ni     -2.10441468     0.04031970    -6.04236129     1.30286675     0.07291686     0.20372241
Mo     -9.75564388     8.72189152   -10.21445597     0.41091472     0.07979509     0.31323207
Mo     -9.81058623     8.60899426    -6.32680012    -2.41126250     0.65446722    -0.22292605
O      -2.03984149     1.89007862    -2.09692873     0.49926411     0.06301432     0.47926888
O      -1.84310298     1.98936657    -6.12153159    -1.87845134    -1.28868467     0.16899316
O      -5.92159429     6.77398216    -1.87862328    -0.02375462    -0.23510482    -1.19286703
O      -5.94366689     6.89396669    -5.87276285     0.25944112     0.15349269     0.16394638
O      -5.89485261     2.12258642   -10.00968954     0.28964515    -1.16095756    -0.26430077
O      -5.97188975     1.84749582    -5.96582728     0.63058258     0.92667248    -0.48839779
O      -9.70396439     6.79236224    -9.83780274    -0.35070008     0.45731541     0.19781397
O      -9.85532324     6.71798549    -5.86478936    -0.19692772     0.09163991     0.02436253
O      -3.92163602     2.28582127    -4.08252677    -0.51981876     0.56421516     0.27836960
O      -3.88787862     2.40241998    -7.94929259    -0.12533956     0.57193998    -0.11027407
O      -7.69878997     2.44840888    -4.04612626    -1.23169643     0.82388939     0.39147826
O      -7.94043714     2.40103118    -8.08987974     1.24497195     0.03311192     0.93235585
O      -3.80397906     6.27620716    -3.87611410    -0.60363107     0.89058913    -0.45884714
O      -3.92364927     6.32249417    -7.96286305    -0.42730125    -0.26761348     0.61650411
O      -7.81823373     6.37267316    -3.84875296    -0.11228742    -0.02662787    -0.53389640
O      -7.82671805     6.31334283    -7.77585050     0.26060386     0.49937453    -1.13627247
O      -4.06712901     4.22193778    -2.01060161     0.13123348     0.43816594     0.56954835
O      -3.82208720     4.26399263    -5.90255761    -0.07612484     0.22596714    -0.03424750
O      -7.90446268     4.48910208    -9.85462216    -0.01585351    -0.32384468     1.21007037
O      -8.11371735     4.46697076    -6.02819441     0.96955555    -0.57668149     1.17202938
O      -7.82199665     8.65415386    -2.05442932    -1.17327474     0.35321641     0.10867149
O      -8.14626318     8.61830958    -5.97921347     2.50092448     0.17198247     0.11141006
O      -3.96144614     8.65258079    -2.18183189     0.40261191    -0.17024133     0.19786977
O     -11.50519431     8.65996030    -9.98131045    -0.10573409    -0.00598254     0.33534731
O      -1.98292922     4.13611574    -3.79255951    -0.72630709     0.80952397    -1.09658062
O      -1.95700599     4.28062476    -7.96707352     0.47523210     0.98954006     0.20024319
O      -5.85131843     4.13735148    -4.12258791    -0.82234511     0.46091500     0.23304130
O      -5.87094603     4.27294376    -7.77673901     1.00276738     0.48220119    -0.40827495
O      -2.08519634     0.22676702    -4.17853607     0.33138483     0.13138820     0.49537199
O      -5.79380497     8.57493158    -7.91457653    -0.51002915     0.92436651     0.39781454
O      -5.92478491     0.23692176    -4.07577009     0.26450285     0.60366992     0.37904624
O      -5.81136578     0.53088237    -8.08293856    -0.07327003     0.11323994    -0.37853626
