# total energy = -630.68252520 eV

CRYSTAL
PRIMVEC
        0.00279571     0.02951795    -7.98606283
       -7.83802570     0.01298533    -3.99532603
       -3.92160916     8.71933433     0.00634407
PRIMCOORD
56 1
Li     -3.93263390     2.27530148    -1.87383435    -0.01704424    -0.12662523    -0.13026494
Li     -3.92640395     2.11453663    -6.02076334    -0.24829895     0.09627643    -0.03830272
Li     -7.92816227     2.44623858   -10.01261926     0.25160648    -0.36545651    -0.12378434
Li     -7.65825355     2.13015597    -5.94067306    -0.54915487     0.24875428     0.51271965
Li     -3.96876619     6.43478740    -1.93525229     0.38153877     0.15123954    -0.26560932
Li     -3.82503113     6.50533681    -6.06666182    -0.43214667    -0.00257654     0.85786972
Li     -8.00537616     6.44769825    -9.90589473     0.24648418    -0.15837192    -0.30599510
Li     -7.79677621     6.70160631    -5.93078178    -0.38913832     0.03167219     0.03640133
Ti     -1.97423154     2.16105939    -4.00156058    -0.45113335    -0.16600564    -0.82770067
Ti     -5.91583371     6.48470955    -8.13950752     0.16262681     0.76209454     1.02152377
Ti     -7.80482826     4.27384325    -7.65155120    -0.46558944     1.80802817    -0.00662761
Ti     -7.76045074     4.42863575    -3.68795989    -0.09539970    -0.24079099    -0.76008234
Ti     -3.70476160     4.33784116    -7.71701091    -0.28857945     0.16598281    -0.10237051
Ti     -3.89271368     4.38390032    -3.63456341    -0.01672778     0.58892602    -2.04146241
Ti     -2.18974288     0.02099651    -2.03266793    -0.90655307    -1.40177475     0.33558319
Ni     -5.81160281     2.47864236    -8.08753274    -1.13154950    -0.53820704     0.48761045
Ni     -5.85124572     2.14422096    -3.94225612    -1.03129005     0.23735108     1.67512172
Ni     -9.79601848     6.65894203    -7.83442747    -0.50474135    -0.67671601    -2.02394416
Ni     -9.81555874     6.49863904    -4.13072429     0.43826347     0.21753347     0.51209914
Ni     -1.88837286     1.96298644    -8.00187273     0.01247583     0.17376958     1.17544307
Ni     -5.84374223     6.53489900    -4.04421376    -0.28349492     0.41886781     0.16902758
Ni     -5.93360604     8.69716888    -6.02731531    -0.37768656    -1.55299458     0.41724395
Mo     -5.98017598     0.11177478   -10.25230573    -0.62310413     1.20512949    -0.60665282
Mo     -9.88544158     8.71821536    -6.41004004     2.79405933     1.51232224     0.50156904
O      -1.93803944     1.81432882    -1.88434948     0.73192997     2.31519765    -0.74380198
O      -1.97202327     1.76626667    -6.04097572    -0.40379155     1.33192414     0.05693137
O      -5.87456643     6.71142443    -2.06882565    -0.23546393     0.67975101     0.48289032
O      -5.97130641     6.80829269    -5.93688859     0.98409839     0.66065228    -0.42755266
O      -5.85264227     2.13169883    -9.96819603    -0.63425900    -0.81904229    -2.14280738
O      -5.80937356     1.88466852    -5.72429110    -0.17014350    -0.24504915    -1.50253094
O      -9.74552493     7.01219065    -9.76006801    -0.40155049    -0.08304310     0.60883005
O      -9.81475614     6.85693069    -6.04034145    -0.40186588    -1.35749307     0.41835712
O      -3.99550642     2.43363059    -3.82957867     1.48082526    -0.17859708    -0.66516747
O      -3.95971924     2.46094391    -8.00958767     1.17086946    -0.38300291     0.16742362
O      -7.82071003     2.37124655    -3.94910413     0.15432723     0.71591002     0.08374160
O      -7.90455743     2.43589010    -8.14681965     0.55219879    -0.28223608     1.38552519
O      -3.86087083     6.37712195    -4.01016177     0.27599061    -0.34608008     0.32971119
O      -3.91317103     6.35911518    -7.96326747    -1.00874098     0.01081338    -0.27672628
O      -7.91295029     6.44454726    -4.00073250     0.84313961    -1.11283705     0.22018210
O      -7.89186737     6.30679774    -7.98343060     0.80808527    -0.69430866     0.64087761
O      -3.89522210     4.44949803    -1.91616845     0.12514987    -0.12632691     0.90232496
O      -3.96231311     4.24277511    -6.00114734     0.20412977     0.46090023     0.72783874
O      -7.92618451     4.43437131    -9.91471699     0.00810697    -0.12670507    -0.58259798
O      -7.84996387     4.20520248    -5.89557540     0.02994005     0.14253742    -0.84357354
O      -4.03236470     0.25012135    -2.05279120     0.52621600    -0.91643385    -0.03730167
O      -8.03061130     8.66420727    -6.21741320     0.70883188     0.40817722     0.56655310
O      -7.69925435     0.08856408    -6.19920821    -2.11801157    -0.41857269     0.96563775
O      -7.75740326     0.10608003   -10.09310183    -0.07635224    -0.12956258    -0.05976667
O      -1.96696941     4.17629964    -4.02413501    -0.07186356    -1.06429319     0.53731955
O      -9.73531882     4.74562799    -4.00954326     0.37326490    -1.58959718     0.10649638
O      -5.84089090     4.64961711    -3.87536652    -0.40731343    -0.39518241    -0.53363792
O      -5.83236781     4.40896782    -8.03785025    -0.69264898     0.45366612     0.25024996
O      -1.96892302     0.24250924    -3.92908864    -0.16684346    -0.25602753    -0.78528296
O      -6.09572541     8.42868758    -8.02639495     0.97270085    -1.09716224    -0.75215869
O      -9.80577452     8.29374065    -4.05156238    -0.12550445     1.27090548     0.35235097
O      -5.96179080     0.64551991    -8.14840190     0.45202943    -0.09324010    -0.03005513
