# total energy = -630.37340775 eV

CRYSTAL
PRIMVEC
        0.00279571     0.02951795    -7.98606283
       -7.83802570     0.01298533    -3.99532603
       -3.92160916     8.71933433     0.00634407
PRIMCOORD
56 1
Li     -3.96172249     2.41852356    -1.84585124    -0.25073262     0.01707997    -0.41583303
Li     -4.02891346     2.31586812    -5.95851513     0.76122029    -0.12611414    -0.05687995
Li     -7.96309805     2.39336747   -10.03737428     0.75961010    -0.53455096     0.70531677
Li     -7.78265097     2.24233500    -5.87759109    -0.33670013    -0.05629854    -0.30900230
Li     -3.86731010     6.70705967    -1.98693720    -1.13422015    -0.35668087    -0.24062033
Li     -3.82134892     6.56073931    -5.89271246    -1.02521507    -0.31284029     0.17161569
Li     -7.87391396     6.37594371    -9.85874793    -0.15390712     0.27275271    -0.34293027
Li     -7.79333196     6.34098155    -5.89893665    -0.42180132    -0.05805186    -0.22783367
Ti     -1.98240348     2.35931411    -4.02858998     1.99071970     0.86545714    -0.16569128
Ti     -5.78531212     6.75541671    -8.05777914    -0.36386839    -0.75351850     0.56733457
Ti     -7.60629614     4.32028483    -7.81241198    -0.04944738     0.78135578     0.70616421
Ti     -7.75794707     4.33321388    -3.68706915    -1.27678761     0.03891204    -0.42338352
Ti     -3.86354199     4.30245646    -7.70747158     0.43749294     1.38226047     0.63042160
Ti     -4.08699103     4.50025216    -3.78309100     1.84348947     1.30328092     1.86118068
Ti     -2.18239646     0.08628389    -2.20170990    -0.25677125    -0.41576059    -0.08662608
Ni     -5.81105014     2.19469492    -7.86284901    -0.54251550    -0.57032404    -0.78887172
Ni     -5.83554240     2.28278734    -4.11534852    -0.14805160     0.61232827     1.11038531
Ni     -9.70863387     6.40436046    -8.01145217    -1.36823400    -0.08908704     0.32681557
Ni     -9.87545469     6.53341568    -3.89786984     0.08034679    -0.27811789    -0.74731503
Ni     -1.86128788     2.19473509    -8.00218959    -0.72269372     0.28610608     0.47450755
Ni     -5.98206669     6.62761656    -4.03156613     0.48697998     0.39188174     0.41881722
Ni     -1.98742570     0.02669442    -6.06814178     0.00973462     0.66841996     2.25772809
Mo     -9.96625949     8.69901627   -10.29334159     0.06121891     0.56788108     1.62319331
Mo     -9.77111482     8.65120071    -6.32742273    -4.40865165     0.08399556    -0.01571114
O      -2.07089564     2.05017676    -2.09949946     0.67603380    -1.21163794     0.80913876
O      -1.94372196     1.92324377    -6.03533455    -0.28403170    -0.68095011     0.00224696
O      -5.97252063     6.80405590    -2.01415046     0.32986806     0.34220213    -0.07449452
O      -5.91585027     6.92586565    -5.93376627    -0.12676264    -0.48724200    -0.10043474
O      -5.93793830     1.80644660    -9.74770011     0.62398501     0.49598691     0.05207813
O      -5.88405165     1.95927052    -6.00237642     0.12408613    -0.33032806    -0.61483579
O      -9.83199194     6.79499832    -9.99646877     0.42886995    -0.35597646    -0.66256203
O      -9.98039206     6.77805353    -5.77942587     2.40556206     0.72097578    -0.13999597
O      -3.77393242     2.57983093    -4.06397335    -2.48524353    -0.92522453     0.02458760
O      -3.90165846     2.41288824    -7.96228977    -0.38855142    -0.25339180     0.62347988
O      -7.76473376     2.37329158    -3.92568832    -0.27397849     0.08170395    -0.77001291
O      -7.74995255     2.40703357    -7.94724595    -0.33306521    -0.63343288    -0.09792453
O      -3.91553747     6.45333876    -3.94717879    -0.11173931    -1.11283889    -0.09610608
O      -3.90240748     6.41628069    -8.01201077    -0.08351074     0.11746105     0.78343681
O      -8.01511958     6.19822298    -3.95213960     0.89687126     1.15726911     0.00921174
O      -7.83654447     6.31233673    -7.95973051     0.80095592     0.46166651    -0.08127300
O      -4.01072422     4.44756469    -1.95834057     0.20614948    -0.22159505    -1.44998692
O      -3.86959135     4.56119488    -5.89643449     0.05116895    -0.53872820    -1.43524199
O      -7.92102665     4.32655461    -9.90220846     0.38613361     0.24666724    -0.47068474
O      -7.82937648     4.42089040    -6.08377404     0.22096684    -0.50769848     1.31576447
O      -7.95412236     8.64827533    -9.88762682     0.85553451     0.54893219    -0.75936256
O      -8.08754501     8.69544829    -6.01644211     2.49091625     0.15195756     0.38533282
O     -11.70661516     8.70785761    -5.97400216     0.33564332     0.79549406    -0.14384274
O      -3.90154719     8.66986903    -6.07796627     0.66225688    -0.18466540    -0.04812731
O      -9.67441525     4.34400411    -7.91201654    -1.17480588    -0.19084881    -0.59802641
O      -1.92334399     4.15169451    -7.99087341     0.10188425    -0.50690098    -0.14997731
O      -5.89786215     4.22083334    -4.04721869    -0.59370652    -0.61039600    -0.30691498
O      -5.73583629     4.65710024    -7.95372431    -0.46188904     0.47191470    -0.21406540
O      -2.03132181     0.26679349    -4.03520574    -0.18257260     0.29362965    -0.24557271
O      -5.84570489     8.65273619    -7.86658884    -0.12937517    -0.20025030    -1.68635689
O      -5.86748851     0.44982707    -4.00539449     0.42542530    -0.22586728    -1.29319264
O      -9.91847831     8.33346963    -8.11182303     0.77388236    -0.78604637     0.45051159
