# total energy = -630.79316386 eV

CRYSTAL
PRIMVEC
        0.00279571     0.02951795    -7.98606283
       -7.83802570     0.01298533    -3.99532603
       -3.92160916     8.71933433     0.00634407
PRIMCOORD
56 1
Li     -3.79042347     2.54386045    -1.84356308    -0.40425845    -0.31552298    -0.75762953
Li     -3.95775326     2.41632191    -5.91632224    -0.03024776    -0.47039960    -0.18782348
Li     -7.87203103     2.39981967    -9.99128976     0.26591326     0.04843247    -0.28807486
Li     -7.78949696     2.56645410    -5.86265301     0.16751483    -0.90083034    -0.03151185
Li     -3.91978897     6.43566036    -1.90521950     0.22185236     0.20287421    -0.23226839
Li     -3.77485866     6.55615441    -6.01365248    -0.45584862    -0.17861972     0.45252023
Li     -7.95075999     6.29014369   -10.03254108     0.12785209     0.71153944     0.83167115
Li     -7.75882909     6.55518798    -5.89260298    -0.09942253    -0.09589473     0.23770920
Ti     -1.83072638     2.07915303    -4.11991869    -0.09436648     0.24470587    -0.25832441
Ti     -5.94853387     6.63891780    -8.00724409     0.58145174    -0.46261734     0.00706533
Ti     -7.92132588     4.37421336    -7.71490396     0.78411200     0.03960800    -1.43195207
Ti     -7.85390171     4.44938107    -3.73452938    -0.26062281    -0.94144995     1.19081685
Ti     -3.90226955     4.37402731    -7.73050246    -0.31024277    -0.79376459    -0.79112075
Ti     -3.99223495     4.40887569    -3.73212366     0.36943718    -0.70589999    -0.97493092
Ti     -2.24439869     0.08787272    -2.09482696    -0.04113195    -1.32277168     0.12692006
Ni     -5.83796794     2.34726240    -8.02437120     0.24183331     0.26599794     0.12794140
Ni     -5.89700931     2.03035728    -3.97496515    -0.23867527     0.70912178    -0.10168010
Ni     -9.76618595     6.71144357    -7.93540365    -0.56574328    -0.32677232     0.51774831
Ni     -9.82202894     6.39160343    -4.06160594     0.27861844     1.52460502     0.22951352
Ni     -1.94461720     2.13077397    -8.02502823    -0.06101540     0.03821589     0.51876335
Ni     -5.80182423     6.53706658    -3.94270575    -0.08893325     0.55785108    -0.47137077
Ni     -5.98159988     8.65215893    -6.07256018     0.86146430     2.15341935     0.67268809
Mo     -6.00272830     0.18488137   -10.28845418     0.41065089    -1.34889642    -0.42460959
Mo     -9.77324051     8.69780484    -6.22135564     0.31379759    -0.27562324    -1.56808099
O      -1.91318433     1.96215561    -2.03949967     0.07965840    -0.20729276     0.50452276
O      -1.99359259     1.79132774    -6.13066764    -0.00069943     0.52412733     0.69544066
O      -5.92099288     6.82264162    -2.05792716     0.18203638    -0.05910106     0.96722758
O      -5.81182161     6.90813476    -5.92168034    -0.65781400    -1.55487124    -0.87993072
O      -5.86514277     2.03836165   -10.07766038    -0.07638672     0.93583636     0.10279621
O      -5.82370904     1.89941466    -5.84972711    -0.86359499     0.06720814     0.50862767
O      -9.72544314     6.92771547    -9.80652914    -0.48946328     0.35768730     0.05861275
O      -9.68024106     6.66669649    -5.97927792    -0.26853073     0.97779241    -0.99118284
O      -4.05581363     2.44337435    -3.93648809     1.09052340    -0.34706499    -0.16059050
O      -3.89734057     2.46544541    -7.99308666     0.31223852    -0.47081365    -0.06635074
O      -7.90270008     2.45377819    -3.97181161     0.50007327     0.08422113    -0.01851396
O      -7.73691310     2.36982291    -8.02044141    -1.04568355     0.11637580     0.23141866
O      -3.84451488     6.33320283    -4.07761760     0.58519667     0.39645359     0.64742286
O      -4.02054347     6.25815415    -7.90758769    -0.18758987     1.56606876    -0.75247758
O      -7.77400894     6.37035065    -3.91963215    -0.46566283    -0.30385305    -0.47973883
O      -7.87088941     6.31611734    -7.92478643     0.46154796     0.60636324    -0.16250224
O      -3.94283385     4.44533077    -1.99081328     0.19147509     0.05852019     0.38221082
O      -3.93873347     4.32956104    -6.01642649     0.50937143     0.23481714     1.90228825
O      -7.90927576     4.39336628    -9.84790531     0.13725943     0.02492891    -2.91956438
O      -7.78164858     4.39148083    -5.99663411    -0.08750325     0.21036779     1.77847152
O      -4.04545968     0.07950170    -2.10317863     1.76118569     0.31309361    -0.03216455
O      -3.96857610     0.07071003    -6.01879329    -0.41316482    -1.13294613     0.12033595
O     -11.53391410     8.50218550    -6.00420380    -0.02727951     0.64423469    -0.10168638
O      -7.73240099     0.12204570   -10.21123615    -1.47866395    -0.13877744     0.68110880
O      -1.91858001     3.93752793    -4.00720605    -1.23339014     0.59984421     0.03024610
O      -9.82585041     4.63113028    -4.17350093     1.10442401    -1.44221596     0.74119417
O      -5.86436606     4.63974610    -3.94701309    -0.91407977    -0.22491116    -0.25184239
O      -5.91513956     4.27088714    -7.92729268     0.20473478     0.70706484    -0.54132799
O      -1.72252552     0.18946678    -4.00871404    -0.99203584    -0.73426125     0.45661370
O      -5.90694277     8.44720222    -8.05038060    -0.24339401     0.28329714    -0.50007430
O      -9.84230873     8.21303165    -4.02992152     0.63483016     0.78156024     0.06502600
O      -5.79388539     0.57022484    -8.08688210    -0.35642206    -1.44680065     0.54912395
