# total energy = -630.84965625 eV

CRYSTAL
PRIMVEC
        0.00285542     0.02004370    -7.95977623
       -7.82940539     0.00763210    -3.98158109
       -3.91729101     8.74642787     0.01461334
PRIMCOORD
56 1
Li     -4.01164998     2.29221715    -2.01946994     0.85873472     0.35573965     0.30379525
Li     -3.91640216     2.25084406    -6.06266786    -0.11789053    -0.10742983     0.48083254
Li     -7.85042004     2.46643839    -9.93598394     0.14214325    -0.02526140    -0.35559481
Li     -7.78487582     2.05973802    -5.87097059    -0.21924863     0.53901716    -0.16025616
Li     -4.01356154     6.52916013    -2.00983514     1.00169033    -0.28468395     0.12756292
Li     -3.76977314     6.65122069    -5.85053692    -0.55345933    -0.28340800    -0.76350755
Li     -7.66545423     6.52146924    -9.88759768    -0.80925266    -0.12317551    -0.10436709
Li     -7.79536346     6.66824887    -5.93021733    -0.29037705    -0.13803248     0.05166116
Ti     -1.91497100     2.20384023    -4.00034586    -0.00651364     0.70513204    -0.21153891
Ti     -5.76925668     6.70292400    -7.86696366     0.11787369     0.74444706     0.17112827
Ti     -7.77901090     4.43550764    -7.79254114     0.07248026    -0.62294080     0.17258059
Ti     -7.90430528     4.50472496    -3.79387378     0.33930024    -1.56759025     0.06861694
Ti     -3.86677141     4.36963601    -7.71908308    -0.19112536    -0.54391567    -0.47623149
Ti     -3.98907477     4.42692392    -3.82665041    -0.51178431    -0.57781168     1.20408952
Ti     -6.10428130     8.69372758    -2.09239214    -0.09166528    -0.45422476    -0.18557429
Ni     -5.74154665     2.37914058    -7.93636326    -1.39900140    -1.12261794    -0.86223343
Ni     -5.88235473     2.29497835    -4.03867321    -0.76667511    -0.54020529    -0.41408445
Ni     -9.79766079     6.42612520    -8.01729566     0.77823424     0.28494041     0.73678861
Ni     -9.75585272     6.35304628    -3.90734027    -0.73204031     0.36463848    -0.42638918
Ni     -1.93130937     2.06264115    -7.99058848     0.00124174     0.69472993     0.21317050
Ni     -5.75241438     6.56998203    -3.97432100    -1.14119028     0.21294822    -0.19042482
Ni     -5.98354997     8.74386345    -5.87077104     0.00249394     0.35883220    -0.77180348
Mo     -5.99612244     0.06083143   -10.15965457     1.04741250    -0.07034121    -1.02887470
Mo     -9.84364900     8.71325904    -6.24079797    -1.09992910    -0.33899910    -1.05269363
O      -1.97872640     1.79825050    -2.01816541     0.10927367     1.37967722     0.62745648
O      -2.02776922     1.85242120    -6.00004977     0.45895972    -0.32494290     0.13300297
O      -5.79720194     6.75787879    -1.89580518    -0.17527546     0.15407529    -0.97243740
O      -5.86414318     6.86467328    -5.90509887    -0.02926944     0.17706766     0.91370063
O      -5.77453568     2.01287909   -10.02891614    -1.06076598     0.07636307     0.45683392
O      -5.88410455     1.99054830    -6.00343850     0.39142458     0.65255607     0.43250835
O      -9.69273438     6.92786751    -9.95467705    -0.20928173    -0.94451998     0.34580548
O      -9.90753690     6.83482065    -5.98142301     0.56325618     0.11343287    -0.02348288
O      -3.92080125     2.44862835    -3.91812217     0.34198543     0.32869358    -0.78993222
O      -3.84896707     2.40833170    -8.03175304     0.09120985     0.21269938     0.29385150
O      -7.90634859     2.46080869    -3.98319105     0.28684940    -0.23508965     0.22971322
O      -7.78088608     2.41998601    -7.99263697    -0.24908906    -0.41916072    -0.20509694
O      -3.84642073     6.42535087    -4.09777143    -0.07335436    -0.86774892     1.15345458
O      -3.83795442     6.35735956    -7.83764578    -0.64467552     0.31281342    -0.33275226
O      -7.90334230     6.41066440    -4.00001323     1.06900902    -0.14361868    -0.00834978
O      -7.68564876     6.38580328    -7.91272022    -0.78295230    -0.25621194    -0.14160168
O      -3.88207051     4.46549552    -2.03759840    -0.17197550     0.22236443    -1.37200357
O      -3.83182183     4.34012266    -5.98106938    -0.00753766     0.02261488     1.18189645
O      -7.97353519     4.44322523    -9.97747707     0.38676725     0.10091284    -0.04374705
O      -7.83678510     4.28317280    -6.07901002    -0.30526872     0.48818188     1.13777345
O      -7.91672708     8.60378519    -9.88681718     0.47785197     0.60999999     0.01870266
O      -4.14826227     0.03144140    -6.13294658     0.93048073    -0.43314301     0.73693371
O      -7.76332162     0.12447087    -5.88073644     0.37755408    -0.86475436    -0.84467210
O     -11.61152177     8.64806933    -9.80870002    -0.82205490     0.46437179    -0.43008964
O      -1.89520723     4.10920969    -4.05872288    -1.07905369     0.60939887     0.08124119
O      -2.02374689     4.40683035    -0.10691066     1.70819626     0.05222312    -0.34017341
O      -5.99147428     4.13964429    -4.00545412     1.41798342     0.96827355    -0.17542610
O      -5.78930405     4.31674666    -7.94484827    -0.48687063     0.35052711    -0.46618009
O      -2.27579192     0.27268275    -3.97608775     1.01905891    -0.72885863    -0.44005405
O      -5.86270937     8.53918734    -7.87438662     0.16428828    -0.15906311     0.07814927
O      -5.89943486     0.41756860    -4.06744857     0.07001233    -0.28641129     1.23837120
O      -5.84535896     0.43895919    -8.10216382    -0.24120623     1.13885754     1.00263469
