# total energy = -630.85082674 eV

CRYSTAL
PRIMVEC
        0.00279571     0.02951795    -7.98606283
       -7.83802570     0.01298533    -3.99532603
       -3.92160916     8.71933433     0.00634407
PRIMCOORD
56 1
Li     -3.87240392     2.38230250    -2.13946479    -0.25668127     0.14308928     0.91777787
Li     -3.95263491     2.18468896    -6.04151558     0.27890706    -0.00785185     0.02009929
Li     -7.66087580     2.24996968    -9.98219238    -0.73395136     0.39593140    -0.05813802
Li     -7.84263962     2.14638247    -5.93380944    -0.10918899     0.09750670     0.26135600
Li     -3.75037940     6.32993763    -1.81550365    -0.80650459     0.11439879    -0.62261599
Li     -3.98398198     6.41105301    -5.81822745     0.26785418     0.27232464    -0.19606964
Li     -7.83956762     6.28501151    -9.83288625    -0.14106533     0.07660813    -0.27862049
Li     -7.85019054     6.37193752    -5.72780952    -0.23517907     0.36544925    -0.49664301
Ti     -1.93908033     2.17370183    -4.11210184    -0.26664872     2.12060917    -0.57126391
Ti     -5.85747305     6.79513606    -8.05087077    -0.21212206     0.08894116    -0.07045518
Ti     -7.72393193     4.37047803    -7.67522525    -1.41632251     0.02306022    -0.26750493
Ti     -7.72423145     4.29426705    -3.73604556    -1.15059592    -0.38598850     0.86409921
Ti     -3.86818414     4.45883699    -7.71003357     0.60734495    -2.07588000    -0.38745102
Ti     -3.97477110     4.50147045    -3.84621128     1.18776977    -0.46143794     1.06894917
Ti     -2.25388059     0.05602814    -2.16459050    -0.07168901    -1.81110160     0.72463850
Ni     -5.90994027     2.37730208    -7.98101975     1.07471684    -0.63583798    -0.41467035
Ni     -5.83549279     2.27970470    -4.12680308     0.31765347    -0.19714506     0.80186602
Ni     -9.74650009     6.45703264    -7.88679016    -0.22787806     0.47463792     1.17654061
Ni     -9.76463328     6.45389392    -3.83861335    -0.09363483    -0.12661594    -0.88914431
Ni     -1.97174186     2.09184163    -7.96903426    -0.15777174     0.02890623    -0.04287039
Ni     -5.93167795     6.59525824    -4.01659873     0.37464762    -0.35044748     0.84829483
Ni     -5.94140881     8.67733155    -5.92141753    -0.25719134     1.27170574    -0.96960744
Mo     -6.06614286     0.09893320   -10.27088489    -0.06787668    -0.31385784    -0.80132706
Mo     -9.89522822     8.71887266    -6.39553197     1.43275594    -2.62873496     0.99688734
O      -1.99330957     1.88366891    -1.96071725     0.35745417     0.96925000     0.03178331
O      -2.01046319     1.82318969    -6.03185736     0.22440870     0.09674527    -0.07224849
O      -5.85991405     6.73936733    -2.07603922    -0.14400811     0.37636093     1.12814000
O      -5.88107144     6.91087506    -5.92996313    -0.07095326    -1.23054704     0.25776068
O      -5.77224457     2.01479093   -10.20136181    -0.59660259    -0.46361125     0.23979148
O      -5.80510890     1.88203775    -5.93762958    -1.03457199     0.57051769    -0.09359060
O      -9.78302266     6.99106137    -9.70642614    -0.32827354    -0.42931634    -0.46703419
O      -9.84142459     6.71408160    -5.85507927     1.12429503     0.85219299    -1.41676689
O      -3.88353390     2.43084146    -4.08864468    -0.12584442    -0.13883701     0.35364013
O      -4.00335540     2.41300833    -7.93266099     0.65130298     0.98503595    -0.54377083
O      -7.77439922     2.33657150    -3.97979674    -0.42905151     0.32485725    -0.22970269
O      -7.83734127     2.40957235    -7.92012317     0.42176086    -0.46958983    -0.31067519
O      -3.80019346     6.43059157    -3.88573252    -0.19559478    -0.58951679    -0.65501534
O      -3.92352682     6.39357412    -7.86957976    -0.56262163     0.02429840    -0.01880030
O      -7.87493782     6.23381313    -3.76400269     0.32212248     0.84278337    -1.03764784
O      -7.77436144     6.33025913    -7.89442737    -0.00656016     0.05025762    -0.29034987
O      -3.79675048     4.37969549    -2.05889250    -0.37433611    -0.28860685    -0.47676499
O      -3.75710842     4.32075164    -5.97332609    -0.35864248     0.58565096     0.75362641
O      -7.70033686     4.26390042    -9.92961961     0.13070055     0.03417826    -0.67161785
O      -7.77925914     4.34355292    -5.93393575    -0.47109997    -0.01186103     0.44890740
O      -7.96373169     8.74997584   -10.03663939     0.48778174     0.28492135    -0.24250735
O      -8.04207070     8.62691080    -6.17643983     0.32131772    -0.00710065     0.57950301
O     -11.63874246     8.67158412    -5.92812673     0.47824017     0.45271023    -0.71674181
O      -7.88149051     0.15082447   -10.15586396     1.35013870    -0.24390157     0.25426764
O      -1.87763933     4.15405044    -4.10765474    -0.20187943    -0.33965460     0.32515991
O      -9.77595513     4.52826472   -11.90943208     0.71014717     0.35546160    -0.29702171
O      -5.83765921     4.41529156    -4.20863831    -0.15897632     0.13098482     0.50584336
O      -5.84359957     4.38963170    -7.88673852     0.64880387    -0.22055853    -0.51757902
O      -1.88528507     0.24294475    -3.99926005    -0.33098647    -0.49366508    -0.09014403
O      -5.83225250     8.59033766    -8.15586271    -0.38445412    -0.41610758     0.50105025
O      -9.76175322     8.39346067    -4.04950276    -0.10262671     0.18736212     1.17245965
O      -5.90907839     0.40900695    -8.18906733    -0.67327914     1.48697276    -0.09969606
