# total energy = -630.72943450 eV

CRYSTAL
PRIMVEC
        0.00279571     0.02951795    -7.98606283
       -7.83802570     0.01298533    -3.99532603
       -3.92160916     8.71933433     0.00634407
PRIMCOORD
56 1
Li     -3.94795706     2.50147478    -1.98935341    -0.08774266    -0.51684513     0.00268649
Li     -3.97415427     2.37901404    -6.02929513     0.09347377     0.11747109     0.23554498
Li     -7.89665408     2.37638820    -9.87545368     0.52305658    -0.29539392    -0.46263413
Li     -7.75489010     2.21125065    -5.86977972    -0.43850799     0.23617913    -0.29848492
Li     -3.89058976     6.68436255    -2.09247101    -0.09190337    -0.22900670     0.32357929
Li     -3.99615951     6.42799691    -5.95931408     0.34033492    -0.03035621     0.38887659
Li     -7.79252627     6.33620932   -10.05455257     0.10255413     0.46840005     0.58380075
Li     -7.94774817     6.38239330    -5.93563214    -0.17230958    -0.20236012    -0.09718432
Ti     -1.91181035     2.19158210    -3.97389569    -0.40279032    -1.34554907    -0.44738542
Ti     -5.89805524     6.65867925    -7.82102395    -0.32332894    -1.23230705    -0.48062967
Ti     -7.70278802     4.36695200    -7.81838764    -1.10063142     0.83544163     2.08692667
Ti     -7.85761957     4.37131340    -3.70972770     0.23463805    -0.35183215    -0.53922790
Ti     -3.93326979     4.43586855    -7.86201116     1.14895377     0.14370676     1.46688101
Ti     -3.98114204     4.40910825    -3.77171065     0.07076713     0.82472147    -0.65134214
Ti     -6.01845652     8.66026605    -1.89747994    -0.13796750     1.08668296    -1.41670466
Ni     -5.80697429     2.23614209    -7.94677707    -1.33461690    -0.60454487     0.18201779
Ni     -5.93220910     2.26813872    -4.00693996     0.51370267    -0.38701061    -0.20846024
Ni     -9.83852115     6.43762988    -8.09123630     1.16233123    -0.30798351     0.56013659
Ni     -9.78033863     6.41849373    -3.89441334     0.13185278     0.44742581    -1.65006482
Ni     -1.97518464     2.22109970    -7.98267163    -0.02398360     0.75573414    -0.21683303
Ni     -5.82791695     6.53534496    -4.03340242    -0.54188510     0.50474326    -0.30596140
Ni     -2.15059034     0.08513514    -6.07127703     1.02944540     0.60218826     1.21971852
Mo     -9.85424670     8.72583253   -10.24637007    -0.22259375     0.86930835    -0.86474243
Mo     -9.76074425     8.72800056    -6.33327460    -0.75947424    -0.02049265    -0.57065513
O      -1.89882572     1.97993979    -2.14134412    -0.34831805    -0.45891195     1.89196282
O      -2.02621910     1.95413849    -6.07865532     0.10749113    -0.34207243    -0.45822435
O      -5.87675001     6.80832559    -2.14229020     0.13806789     0.11936365     0.55655237
O      -6.11355248     6.91118018    -5.96691055     1.57341324     0.25515453     0.38182765
O      -5.88915885     1.93996859    -9.84333799     0.34954926    -0.55581882     0.22793278
O      -5.90737907     1.93350789    -6.00644155     0.52475005     0.07656538    -0.19025745
O      -9.72222619     6.76506196   -10.06127197     0.02157287    -0.21683301     0.18418369
O      -9.83724925     6.82078326    -5.86591003     0.40560866     0.31184801     0.38938160
O      -3.84859341     2.46951246    -3.99389408    -0.09993372     0.26038609     0.07102576
O      -4.05479011     2.57057192    -8.07889956     1.65734129    -1.78994916     0.19496834
O      -7.87563913     2.45335900    -3.95690860    -0.18586207    -0.87161287     0.05434924
O      -7.72006054     2.44001949    -7.88557546    -1.07443375    -0.77056243    -1.22697768
O      -3.85384872     6.41191360    -4.04071587    -1.40048150    -0.93228778    -0.22624120
O      -3.93176836     6.37502228    -7.86637277    -0.06846278     1.56276795    -0.50089099
O      -7.76188582     6.27465583    -4.08223807    -0.50252958    -0.00391000     1.22309616
O      -7.87300358     6.34902483    -7.93121005     0.30186671     0.24075186    -0.68640545
O      -4.06331823     4.48178511    -2.02560233     0.04318941    -0.04366511     0.58752717
O      -4.03454407     4.40162920    -6.07630276     0.22044858     0.00894527     0.20197327
O      -7.68511088     4.33969385    -9.90520401    -0.55467382     0.20497706    -0.53151053
O      -7.72904249     4.29743240    -6.03675875    -0.15017861     0.25582190    -0.42535188
O      -7.84021925     8.72509858    -2.01245384    -0.03831441     0.02867336    -0.00562552
O      -4.03087193     0.06272773    -6.04939243    -1.67582637     0.18373826    -0.46533169
O     -11.64529686     8.69029290    -6.04178133     0.49450025     0.57362775    -0.15409025
O     -11.57392667     8.69947243    -9.95645885    -0.40808934    -0.11355399    -0.55964739
O      -9.82878874     4.55074485    -7.88471184     0.38311457    -1.14251537    -0.88240889
O      -9.79490308     4.44381464   -11.96017740     0.25153582    -0.20833225    -0.25871112
O      -5.91933165     4.16120671    -4.03950186     0.14372522    -0.15699425    -0.10838277
O      -5.84415681     4.73881719    -7.94172894    -0.44096268     0.41845797    -0.63970677
O      -1.99670876     0.33200624    -4.17520820     0.18353669     0.49061223     0.57511983
O      -5.94736126     8.55263216    -7.97987896     0.24602687     0.54495964    -0.34618620
O      -5.83353236     0.31133816    -4.08116007    -0.10305024     0.15590020     1.03405205
O      -9.79068169     8.25883446    -8.16368835     0.40123864     0.30865996     1.34758238
