# total energy = -630.59965541 eV

CRYSTAL
PRIMVEC
        0.00279571     0.02951795    -7.98606283
       -7.83802570     0.01298533    -3.99532603
       -3.92160916     8.71933433     0.00634407
PRIMCOORD
56 1
Li     -3.92244849     2.18828388    -2.07007459     0.24296263     0.19526856     0.64714279
Li     -3.83761212     2.24936164    -5.99801288    -0.76103662    -0.05537773     0.23388357
Li     -7.95249889     2.30018715    -9.96688460     0.05031603     0.07209271     0.05403908
Li     -7.83431519     2.27837503    -6.02006931     0.53660441    -0.14508998     0.61048348
Li     -3.79534308     6.42511543    -1.87166816    -0.46280020     0.14969578    -0.18203147
Li     -3.76204604     6.50722542    -6.00453208    -0.72995783    -0.14221773     0.61885555
Li     -8.00147324     6.45477693    -9.92420376     0.44936555    -0.25241322    -0.16096369
Li     -7.98937800     6.39472256    -5.89495778     0.55746573     0.15534456    -0.05536403
Ti     -1.95034461     2.22058449    -3.94348659    -0.60764912    -0.87866092    -0.61685575
Ti     -5.87048193     6.72114452    -7.94388410    -0.50734676    -0.73270494     0.64530649
Ti     -7.76123349     4.30755887    -7.76348428    -0.60089105     0.28174955    -0.05695210
Ti     -7.79016298     4.41378805    -3.76368195    -1.53225295    -1.24267899     0.26912156
Ti     -3.83805117     4.26954610    -7.72849194     0.70526022    -0.00379285    -1.14082438
Ti     -3.94043457     4.42511469    -3.71930511    -0.38884489    -0.48863877    -1.98988704
Ti     -6.03654820     8.61704389    -2.14741013     0.90408502     2.48868805    -0.74574412
Ni     -5.79233211     2.40894065    -7.99660814    -0.72300160    -1.04416227    -0.29099986
Ni     -5.96209638     2.32397150    -4.05732858     0.66388642    -0.53464471     0.06792396
Ni     -9.74597519     6.48597699    -7.92776588    -0.63950654     0.47373738     0.45870162
Ni     -9.82061427     6.46142995    -3.92198771     0.24004618    -0.11229962    -0.88482291
Ni     -1.88349571     2.00781735    -7.98128786    -0.92934696     0.45932344     0.01907675
Ni     -5.85706411     6.54772784    -4.07741272     0.08426612    -0.07986218     0.79542702
Ni     -6.08847672     8.69681217    -5.93697987     1.17736035    -0.17157219     0.08210608
Mo     -5.97532972     0.17286136   -10.29964472    -0.66466111    -0.41577436    -0.61696646
Mo     -5.88429243     0.03895288    -6.35910154     0.23365257    -1.36036478     1.07475274
O      -1.76319327     1.95201302    -2.04544841    -1.31759139    -1.02797612     0.52352821
O      -2.09741440     1.79166687    -5.98756731     1.21521676     0.30154293    -0.55816338
O      -5.82985059     6.83087299    -1.98571399    -0.18352381    -1.95408729    -0.37375559
O      -5.96328998     6.86637705    -5.92143861    -0.06289282    -0.29052178    -0.65571794
O      -5.83731924     2.03516066   -10.05401849    -0.53877575     0.41029609    -0.25740643
O      -5.82272286     1.93099547    -5.94195931    -0.45026014     1.07788513     0.52893131
O      -9.80303110     7.01487098    -9.82675983     1.19655885    -0.79173071     0.49591238
O      -9.78956573     6.84939338    -5.93810428     0.04058102    -0.63279371    -0.79653518
O      -3.92925264     2.37617805    -4.00418472    -0.27858848     0.29998239     0.06577060
O      -3.83564180     2.31620066    -7.99503903     0.03781198     0.97474828     0.04580182
O      -7.91396456     2.40407778    -3.85709543     0.87008517     0.10999119    -0.96023899
O      -7.79085964     2.30751782    -8.01388474    -0.09453865     1.61990652    -0.01541562
O      -3.85147869     6.37086180    -3.94138421     0.17149498    -0.48989925    -0.01382244
O      -4.05632474     6.28365837    -7.90878099     1.14746807     0.31996014    -0.46044368
O      -7.77649744     6.27856591    -3.97911654    -0.38733319     1.69928671     0.18287546
O      -7.81455244     6.22070883    -8.02355039    -0.05484918     1.20574951     0.26496904
O      -4.04588569     4.25141010    -2.01637333    -0.07101617     0.47292177     1.29975468
O      -3.89826885     4.40931232    -6.01848417     0.03516576    -0.25786037     1.59706740
O      -8.02733575     4.45855269    -9.97391362     0.45157050    -0.38914710     0.31306054
O      -8.14204604     4.47410867    -6.03524167     0.94459674    -0.83146282    -0.24249677
O      -3.87445215     0.20429289    -2.05849097    -1.01944864    -0.87092015    -0.07319369
O      -7.93118621     8.69987142    -6.03219856    -1.62817758    -0.12660755    -0.41216117
O     -11.56285743     8.71668169    -5.86396428     0.07357817     0.10864908    -1.00481946
O     -11.61698655     8.69555738   -10.09747648    -0.53967512     0.85835081     0.10308921
O      -2.03045273     4.07545997    -3.99573666     0.54873594     0.71769751    -0.20661100
O      -9.81459653     4.54257610    -4.06221461    -0.13771860     0.61153059     0.22697408
O      -5.96345472     4.34798747    -4.17046535     1.63580236     0.02728395     0.37941887
O      -5.87271571     4.34703369    -7.87830824     0.18950219    -0.57397271    -0.34029734
O      -1.78684902     0.19840708    -4.08048797    -0.62744697    -0.38599038     1.40941682
O      -5.85864005     8.50365048    -8.01713977    -0.19446797     0.69344734    -0.13826037
O      -9.84302016     8.52033414    -4.07888189     0.92138457    -0.31559629     1.16039421
O      -5.94159373     0.54242299    -8.09173398     0.59332111     0.27549249    -0.94283570
