# total energy = -630.88267027 eV

CRYSTAL
PRIMVEC
        0.00279571     0.02951795    -7.98606283
       -7.83802570     0.01298533    -3.99532603
       -3.92160916     8.71933433     0.00634407
PRIMCOORD
56 1
Li     -3.95604365     2.42140751    -2.00628507     0.14541234    -0.20539615     0.16502900
Li     -3.89910738     1.86867018    -5.94248322    -0.64882819     0.53542730    -0.09182973
Li     -7.78840390     2.45325185    -9.93419017    -0.47366222    -0.16880130    -0.22231891
Li     -7.99979378     2.22837794    -5.77601618     1.17076505     0.28236722    -0.50468110
Li     -3.82252606     6.38261958    -2.19107368    -0.34460016     0.22193382     1.22828515
Li     -3.97045795     6.56674760    -6.01643599     0.38130028    -0.00477109     0.24179618
Li     -7.80033487     6.32450635   -10.08274218    -0.10805581     0.79112426     0.55120497
Li     -7.82833682     6.57313227    -5.84556995     0.04687900    -0.04465709    -0.55399457
Ti     -1.91900253     2.12120457    -3.98477326    -0.65264225     0.03841881    -0.46403470
Ti     -5.90108739     6.49197007    -8.01234102     1.03976103     0.70730047    -0.81868563
Ti     -7.90038860     4.39839817    -7.74333792     0.09201373     0.61666827     0.75513301
Ti     -7.73969302     4.35316726    -3.79323722    -0.47323397    -0.10330967    -1.13945472
Ti     -3.74360973     4.34271564    -7.75383140    -1.22480039     1.05908629     0.07369775
Ti     -3.94710769     4.35757920    -3.90120729     0.72407583    -0.15049630    -0.68358367
Ti     -2.11724063     0.03355980    -1.95253067    -1.56937189    -1.49370620     0.39040899
Ni     -5.90781923     2.40618881    -8.04683953     0.99162437     0.42010221     0.48195048
Ni     -5.89579020     1.96747639    -3.86552415     0.17713146     0.52471359    -2.49683158
Ni     -9.75012409     6.72249538    -7.92932618    -0.81164855    -0.68914145    -0.36843389
Ni     -9.69000522     6.50392122    -4.03220896    -1.62297645     0.13536771    -0.27472460
Ni     -2.00321616     2.27529946    -8.00761395     0.52696363    -0.83441248     0.97410971
Ni     -5.79179634     6.41016796    -4.05694328    -0.61789973     1.45779941     0.60162365
Ni     -6.09347348     8.72821151    -5.96104176     1.59434948     0.00891435     0.03476146
Mo     -6.03018320     0.12157113   -10.19123625    -0.02410520    -0.89140924    -0.94754558
Mo     -9.83214185     8.70487868    -6.35204468     0.51323526    -0.63418216    -0.18690820
O      -1.97052626     1.97361639    -1.92711785     0.18552934    -0.08585044    -0.14374483
O      -2.07553909     1.88763571    -5.90552602     0.69719881    -0.29564135    -0.94587255
O      -5.81507783     6.75200979    -1.99361374    -0.69527443     0.12735536    -0.07932882
O      -5.90132896     6.91235505    -5.92828184    -0.21619635    -0.51626499    -0.04060753
O      -5.87346532     2.04185169   -10.05708841     0.00974401     0.86595488     1.02084559
O      -5.83529181     1.81243480    -5.84385827    -0.77662220     1.10303819     0.84401075
O      -9.72101301     7.00923999    -9.81497529    -0.08800500    -0.62646490     0.37419508
O      -9.72426259     6.76710110    -6.06071611    -0.20385747    -0.01266992     0.41338555
O      -3.93473671     2.36916234    -4.01357820     0.02750722    -0.02624769     0.34721769
O      -3.88624084     2.45324337    -7.99392050    -0.53764269     0.30677872    -0.00191724
O      -7.89443565     2.38720816    -3.92296126     0.04375779     0.19056940    -0.05875607
O      -7.82512439     2.44959223    -7.95418098     0.18153640    -0.63442929    -0.18168105
O      -3.84383577     6.41138296    -4.01638534     0.26478040    -0.60969229    -0.64388016
O      -3.99702888     6.43727364    -8.01447825     0.73288484    -1.14615734     0.29611981
O      -7.81103533     6.35195559    -4.01905237     0.59841812    -0.48135847     0.51021490
O      -7.91661787     6.38204249    -7.94238751     0.98619483    -0.55049703    -0.45991846
O      -3.93358209     4.42508011    -2.16568922     0.15656123    -0.01442308     1.23036543
O      -3.69092897     4.55487852    -6.02605546    -0.64742542     0.00988998     0.69352783
O      -7.80633095     4.44677418   -10.03299253    -0.17305986    -0.28692853     0.88328699
O      -7.97328863     4.45543937    -6.00031796     0.51354808    -0.37520333     0.38274019
O      -3.92199855     0.07715087    -2.03543987    -0.17031061     0.22562320     0.06168336
O      -7.96223701     8.67978541    -6.13613682    -0.05667730    -0.16818475     0.63791549
O     -11.57941389     8.55153354    -6.10927208    -0.85613107     0.84617771     0.20141201
O      -7.79311375     0.10653820   -10.13687250     0.09515997     0.21233371     0.88844837
O      -1.91830834     4.10948118    -3.98087257    -0.93434036    -0.86133378    -0.60380144
O      -9.78444829     4.63592834    -4.03291380     1.47579040     0.01345638    -0.47889957
O      -5.86048745     4.46534501    -4.11541052    -0.12291825     0.07838108    -0.32903930
O      -5.86313852     4.43022489    -7.99818950    -0.21392601    -0.31108530     0.18995632
O      -1.97812846     0.14825391    -3.89844428     0.40562501     0.89265312    -0.83113315
O      -5.98562679     8.37503744    -7.95466625     0.27161762     0.61139294    -0.40932516
O      -9.87243686     8.43022696    -4.00463511     0.90291447    -0.17705072    -0.31753090
O      -5.79957140     0.59835825    -8.12530108    -0.63880339    -0.24054886    -0.16537238
