# total energy = -629.92728354 eV

CRYSTAL
PRIMVEC
        0.00279571     0.02951795    -7.98606283
       -7.83802570     0.01298533    -3.99532603
       -3.92160916     8.71933433     0.00634407
PRIMCOORD
56 1
Li     -3.99625840     2.50149831    -1.95558640    -0.09048108    -0.31806112     0.26921409
Li     -4.04728877     2.59899895    -5.90961418     0.28936218    -0.98916566     0.31881399
Li     -7.94770028     2.37293604   -10.06451184    -0.00149439    -0.06539289     0.53353413
Li     -7.82681128     1.93901890    -5.87218605     0.00641634     0.24051595    -0.08078304
Li     -3.86997935     6.58380318    -2.07382068     0.14436415     0.22944583     0.15042135
Li     -3.98590335     6.31006230    -5.85465148     0.53246214     0.42103250    -0.29558281
Li     -8.06921439     6.28593393    -9.89065632     0.50279269     0.30522390    -0.67490802
Li     -7.69581165     6.53803818    -6.00963350    -0.09195212    -0.20781470     0.53160379
Ti     -1.92167956     1.99170219    -3.93837468    -0.94963154     0.46730613    -0.77402783
Ti     -5.77347829     6.47394089    -8.03290608     0.63271538     0.35078432    -0.12885795
Ti     -7.89226562     4.38674916    -7.82605884     0.78890460    -1.64523800     1.58106205
Ti     -7.77692431     4.33158339    -3.78851097     0.03634932     1.23364323    -0.18496394
Ti     -3.74210575     4.36446610    -7.69654427     0.48279526    -0.00333699    -0.76360808
Ti     -3.89063495     4.46363550    -3.77819103     0.01521733    -0.75960550     0.33330411
Ti     -2.38355462     0.00933816    -1.98759235     0.32864439     0.40702819     0.42407581
Ni     -5.96274210     2.24869780    -7.89084761     0.59525380     1.42030180    -1.48546631
Ni     -5.93239482     2.24139496    -3.95307083     0.42501273    -0.17225013    -0.47912416
Ni     -9.65762356     6.47898842    -7.93623078    -0.83739654     0.50071439     1.09563719
Ni     -9.76308967     6.50305822    -4.08104776     0.60843547    -0.07448917     0.00013037
Ni     -1.91390672     2.09238308    -7.87077872    -0.79006975     0.24530601    -0.74664324
Ni     -5.85219574     6.68164750    -4.05068970    -0.51801172    -0.22383873     0.70165633
Ni     -5.97774824     8.72356625    -6.14796045     0.80458179     0.71083535     0.96526511
Mo     -6.20247289     0.08234777   -10.25099472     0.88623011    -0.08403637     0.08320270
Mo     -9.64290259     8.74086380    -6.36599297    -1.68007408     0.47470588     1.09799943
O      -1.97090487     1.82776096    -1.92492020     0.61569820     1.29960087    -0.46073831
O      -2.05092401     1.79683403    -6.01336878     0.06628629     1.33066736    -0.45735525
O      -5.82413673     6.98021126    -2.08808292     0.37142769    -3.25122868    -0.20090681
O      -5.75833840     6.92350943    -6.05626800    -1.03518668    -1.21338515    -0.09474418
O      -6.00073277     1.98786062    -9.99206144     0.05684992     0.17198366    -0.40856833
O      -5.88466348     2.03903517    -5.96183541     0.33101330    -0.34085357     1.18760126
O      -9.80260238     6.95235068    -9.67291884    -0.38273349     1.29213272    -1.56324492
O      -9.59484618     6.91129377    -6.02657816    -0.19465612    -1.99094864    -0.34949148
O      -3.94838896     2.42677239    -3.91541793    -0.17326782     0.58464546    -0.09685617
O      -3.82053611     2.49641535    -7.95332077    -0.29983087    -0.52040923     0.10741400
O      -7.87458892     2.44212218    -4.03239037     0.35794049    -0.81754434     0.57281762
O      -7.93421118     2.22274261    -8.02824617     0.51101839     1.12961267     0.30042438
O      -3.67573740     6.37866420    -4.03762867    -0.62211790     0.36065885     0.91744715
O      -3.87453075     6.32698131    -7.89586589    -0.20366496     0.46652057    -0.64851233
O      -7.84228606     6.29506804    -4.06034021    -0.26819794     0.74542144     0.20050793
O      -7.75010094     6.29576668    -7.97816988    -0.07769597     0.58470382    -0.05312294
O      -3.98663384     4.54759395    -2.03194953     0.43896926    -0.25213190     0.42371017
O      -3.81256612     4.45695665    -5.91578127    -0.58293910    -0.28372227    -0.29119595
O      -8.03897487     4.40014304    -9.98498035     0.37060921    -0.63790415     0.05740651
O      -7.85773023     4.25531445    -6.04884445     0.32438591     0.38445655    -0.89926249
O      -4.09822692     0.19450390    -9.98776322    -1.50485653    -0.34799398     0.25055029
O      -3.91178285     0.11644884    -5.98407843    -1.06251545    -0.50631068    -0.83177235
O     -11.41569098     8.66197414    -5.86646652     0.88974159     0.47102057    -0.63999799
O      -0.13539470     0.15459757    -6.22471158     0.99879521    -0.42092254     0.30479943
O      -1.91777864     4.17181975    -3.90504545    -1.01913367    -0.71477695    -0.45338276
O      -9.73805733     4.70843688    -4.01723072    -0.47955417    -0.88203396    -0.46674198
O      -5.92177911     4.73138514    -3.92488551     0.94301686     0.13786928    -0.60486029
O      -5.78225163     4.46590667    -8.16346411    -0.71995050    -0.10091188     0.96047345
O      -2.03695481     0.08358786    -4.07976784     0.32347534     0.28161482     1.16093554
O      -5.75379777     8.38666173    -8.08996871    -0.97955376     0.68655132    -0.13693920
O      -9.78456035     8.37203139    -3.97968730     0.28146391     0.24011191     0.52394303
O      -6.05358080     0.44994285    -8.11068286     0.60437360    -0.35007666    -0.65302342
