# total energy = -630.80213672 eV

CRYSTAL
PRIMVEC
        0.00279571     0.02951795    -7.98606283
       -7.83802570     0.01298533    -3.99532603
       -3.92160916     8.71933433     0.00634407
PRIMCOORD
56 1
Li     -4.04414742     2.31920032    -1.93860730     1.05438188    -0.08305547    -0.04270687
Li     -3.93927769     2.37327238    -6.05801387    -0.35819972    -0.47167970     0.24805097
Li     -7.69408820     2.27926872    -9.92333075     0.01450431    -0.05132293    -0.39523051
Li     -7.92256879     2.33792635    -5.87647197    -0.08207941    -0.00940367     0.08964626
Li     -3.89986248     6.33800871    -2.06975135     0.14371091     0.19456831     0.45955671
Li     -3.86600351     6.41352990    -5.92048918     0.04624734     0.30727756    -0.37737054
Li     -7.83963711     6.50953001   -10.00768804     0.01328208     0.08054509     0.66124062
Li     -7.90323071     6.59130757    -5.99863120     0.09785151    -0.20190173     0.35835191
Ti     -1.91969828     2.32299133    -4.20291473    -1.32722628     1.30757853     2.85249904
Ti     -5.84748923     6.75511759    -7.85794399    -1.25187193    -0.41705534    -0.32439465
Ti     -7.62361868     4.27831386    -7.71559789    -0.55291334     1.84574405    -0.47544857
Ti     -7.97386368     4.42224798    -3.65250332     1.05304168    -0.84982243     0.08329297
Ti     -3.90130841     4.43460360    -7.81399377     0.05730087    -0.58139241     1.49327784
Ti     -4.13178007     4.36808879    -3.76297115     0.20876035    -0.40978550    -1.01431380
Ti     -5.75757202     8.69951628    -2.24387992    -0.98442886     1.07212022     0.25759780
Ni     -5.81175950     2.09430156    -7.91382730    -0.14206497    -0.05759041    -0.48842188
Ni     -5.91705231     2.24703184    -4.10527560     0.17095101     1.06772802     0.12652537
Ni     -9.80211794     6.30654841    -8.06854485    -0.31592108     0.12437408    -0.37409505
Ni     -9.80198074     6.63969931    -3.99430753     0.51279463    -0.02382312    -0.11437115
Ni     -2.02097820     2.14982729    -7.97084016     0.66740087     0.44192665    -0.59332408
Ni     -5.94838876     6.66603551    -3.94754979     0.23578914    -0.59575876    -0.75511478
Ni     -1.93139085     0.07013621    -5.98783742     0.05850308    -0.78023827     1.03618823
Mo     -5.81608598     0.07580872   -10.29610004    -1.31332301    -0.98062338     0.14802306
Mo     -5.98087971     0.05600134    -6.28466535     2.26327511     0.78126971    -0.24327524
O      -2.00620141     1.91380721    -2.00770093    -0.39267742    -0.73143588     0.02663166
O      -1.90559534     1.92694359    -5.95777194     0.02392170    -0.36382736    -2.04929222
O      -5.86844000     6.78187876    -1.94645841     0.23157510     0.42819429    -0.49495287
O      -5.88080220     6.90091547    -5.92970659    -0.27835381     0.44147962     0.35020433
O      -5.81306588     1.95407333    -9.79005429    -0.10171460    -0.60393145     0.00569436
O      -5.99066177     2.02928014    -6.09907401    -0.14009011     0.03398750     0.60499089
O      -9.75647166     6.73859334   -10.17290760    -0.45501290     0.19508235     1.05070977
O      -9.76026480     6.91231759    -5.83894255    -1.59045919    -1.01248496     0.49579229
O      -3.99552125     2.36580577    -4.09496949     1.12589055     0.62079936     0.44219246
O      -3.90166027     2.40962617    -7.96965027    -0.71020308    -0.17172979     0.00650573
O      -7.76791347     2.45541891    -3.94872963    -0.92806727    -0.16512620     0.27012957
O      -7.80144142     2.35693744    -7.98168352    -0.39550872    -0.30847767    -0.24706181
O      -3.96838771     6.28341954    -4.14386582     0.15263388    -0.86625585     1.87332272
O      -3.93173590     6.47947398    -7.93173329     0.63624266    -0.66091823    -0.36254652
O      -7.85041078     6.32713233    -4.03793614    -0.09273133     0.40057538     0.28336622
O      -7.88507425     6.28927379    -7.87078076     0.56524564     0.10647212    -0.45763879
O      -3.86604418     4.19986308    -2.00189989    -0.13080015     1.10849483    -0.02591547
O      -3.97488909     4.22813003    -6.01951144     0.50257131     0.97738278    -0.88731369
O      -7.72467102     4.51373423    -9.87118467    -0.35787302    -0.51707489    -0.99616010
O      -7.90787172     4.32230134    -6.01137987    -0.05036233     0.10479868     0.72861295
O      -7.95145758     8.55083816    -9.89386260    -0.04065638     0.88845584    -0.39238583
O      -4.23360732     0.18270615    -6.03199125     0.56270872    -0.07614812    -0.36814929
O      -7.87837788     0.14366046    -5.92086073    -0.19640863    -0.47981057    -0.00626460
O     -11.53121492     8.67162846    -9.86095657     0.72043167     0.34191364    -0.83225095
O      -1.94208090     4.32567078    -4.16017196    -0.15087098    -1.03009378     0.31245166
O      -1.97021345     4.14161492    -7.92976542    -0.06127355    -0.22152587    -0.37861721
O      -5.96064094     4.23452091    -4.02527161    -0.02190454    -0.55681083     0.01329352
O      -5.78867649     4.62840288    -7.90094531    -0.26488580     0.74618695    -0.50393232
O      -1.98841592     0.23029688    -4.08022037     0.14741636     0.54356221    -0.05865506
O      -6.01645906     8.62149989    -7.79748512     0.53573367     0.34108135    -0.89513070
O      -5.89858029     0.38963477    -4.12083771    -0.13988853    -0.13040613     0.93222791
O     -10.04930831     8.18419545    -7.95804482     0.88707189    -0.77287142    -1.10449549
