# total energy = -630.86689176 eV

CRYSTAL
PRIMVEC
        0.00285542     0.02004370    -7.95977623
       -7.82940539     0.00763210    -3.98158109
       -3.91729101     8.74642787     0.01461334
PRIMCOORD
56 1
Li     -4.00231091     2.37040661    -1.93630086     0.36773971     0.06147148     0.32937142
Li     -3.97038933     1.95443036    -5.72176782    -0.15624730     0.23958701    -0.82097937
Li     -7.87901194     2.27890209    -9.87894766     0.22712306     0.04137484    -0.24192515
Li     -7.91244300     2.18517244    -5.76380027     0.45720407    -0.03986197    -0.42405010
Li     -3.79024280     6.51859358    -1.93922950    -0.37312080     0.05029173    -0.72096157
Li     -3.93718782     6.61916742    -5.90442570     0.30178843    -0.28718341    -0.24533997
Li     -7.87314863     6.63406991    -9.93167010    -0.22548331    -0.51703255     0.10579460
Li     -7.63426967     6.61010037    -5.73647301    -0.88496669    -0.09436913    -0.75761871
Ti     -1.98516528     2.18915965    -3.97489760    -0.21069380     2.17726770     0.90003481
Ti     -5.90295031     6.76264571    -7.99655948     0.95176409     0.55788760    -0.37250443
Ti     -7.76741808     4.37522181    -7.64873151    -1.10695111    -0.22817390     0.44644130
Ti     -7.82198958     4.41457185    -3.63350073     0.32219957    -2.13952085     0.42167663
Ti     -3.87123494     4.37340628    -7.73266529    -0.64324797    -0.54626046     0.47514264
Ti     -3.92585551     4.54178243    -3.79860218    -0.39766979    -1.18844311     0.76179067
Ti     -6.12598539     8.70878880    -2.20752611     0.39508807     0.19615396     1.62289316
Ni     -5.94425177     2.38793912    -8.00334479     0.98533468    -0.02449311     0.61301714
Ni     -5.86327318     2.32081375    -4.00966309    -0.18958092    -1.28937771     0.27087364
Ni     -9.73068420     6.51845103    -7.95050010    -0.24876858    -0.06647911     0.40639547
Ni     -9.71325981     6.21379458    -4.08551808    -0.56594590     0.26124830     0.17844575
Ni     -1.92550902     2.20454036    -7.84069770    -0.48725637     0.16709128    -0.52898672
Ni     -5.92185039     6.58778794    -4.02245814     1.58484325     0.11952769     0.95065906
Ni     -5.83818653     8.75493524    -6.00054303    -1.06987432     0.19406580     0.65660831
Mo     -5.99256985     0.05723923   -10.21631200    -1.66100209     0.08184838     0.05875270
Mo     -9.78440384     8.65831059    -6.30718237    -1.04269536     0.13660961     0.17133702
O      -1.95803763     1.85272057    -1.90553980    -0.13527578    -0.44920509    -0.44171097
O      -2.04731450     1.82409871    -5.89430866     0.60727601     0.69989618    -1.07135021
O      -5.99135408     6.71349422    -2.06494649     0.60481713     1.09114764     0.15802886
O      -5.79296977     6.92883555    -5.91605372    -0.26517758    -0.64198097    -0.65545688
O      -5.90364480     2.06683009   -10.04593293    -0.22252913    -0.09606202     0.78884411
O      -5.87957229     1.85097125    -5.92536355    -0.13763928     1.38006180     0.05210022
O      -9.77410129     6.90903218    -9.89606749    -0.41164536     0.65488000     0.03725694
O      -9.68546769     6.72364100    -5.98665761    -0.00766422     0.35253437    -0.16270589
O      -3.90981912     2.42877048    -3.82723888    -0.07226203     0.12240100    -1.31044289
O      -4.01119559     2.44873915    -7.90661109     0.38821860     0.13326670    -0.35209519
O      -7.75545191     2.34281566    -3.92095404    -0.91496783     1.03634779     0.30155301
O      -7.86829740     2.39156400    -7.85654829     0.05302613     0.08343452    -0.55862718
O      -3.84128498     6.45376954    -4.02491102    -0.05957812    -0.16435416     0.56038601
O      -3.97464417     6.32662172    -8.13152152     0.00765764    -0.11494441     1.57452124
O      -7.74729533     6.27315561    -3.90925855    -1.30792282     1.25903585    -0.45081401
O      -7.76908071     6.35864812    -7.95736028    -0.44294396     0.19470302     0.42944704
O      -3.63675433     4.42264876    -2.05165442    -0.83599071     0.32901845     0.04621122
O      -3.77721603     4.45321323    -5.97961763    -0.07950862     0.37999003     0.66853995
O      -7.77754019     4.43355777    -9.82674825    -0.57531067    -0.28056724    -0.28708691
O      -7.84514521     4.39326543    -5.89755764     0.11691127     0.22521468    -0.23127601
O      -4.09687836     0.11838688    -9.97795509     0.79095324    -0.72808451    -0.17723738
O      -7.96598773     8.73743798    -5.98088662     0.32869532    -0.55001201    -0.11019481
O     -11.62470823     8.63233482    -5.97958978     0.80434798    -0.28272655    -0.47476179
O      -0.07051638     0.10920038    -6.10882021     2.99842645    -0.48894161     0.27709844
O      -1.96195666     4.13634876    -3.90784538     0.65621164    -0.22858761    -0.95761910
O      -1.91791711     4.24528743    -7.88856985     0.26395654    -0.06106404    -0.43066239
O      -5.91014420     4.22977565    -3.88614636     1.43130838    -0.06497933    -0.72717779
O      -5.87188548     4.28731955    -7.88603311     0.45707379     0.37562180    -0.32924170
O      -2.07883515     0.24751628    -4.01979195     0.24220703    -0.69478729     0.09327849
O      -5.88205475     8.58537431    -8.04512658    -0.27842377    -0.62832861    -0.19566084
O      -5.89022992     0.27146439    -4.02990107     0.08031617     0.05206269     0.46681160
O      -5.89038040     0.55510689    -8.06406491    -0.30052870    -0.32746923    -0.64187549
