# total energy = -630.31337071 eV

CRYSTAL
PRIMVEC
        0.00285542     0.02004370    -7.95977623
       -7.82940539     0.00763210    -3.98158109
       -3.91729101     8.74642787     0.01461334
PRIMCOORD
56 1
Li     -3.83461680     2.01235485    -1.84949462    -0.60611922     0.66971591    -0.37199280
Li     -4.00520007     2.02340990    -6.02581193     0.43171696     0.16071252     0.31196055
Li     -7.84214667     2.48382990   -10.02670207    -0.00444318    -0.82560066     0.48929327
Li     -7.80955322     2.35272442    -5.92353607    -0.12785752    -0.53047157     0.10093408
Li     -3.73469010     6.43685849    -1.93971252    -0.68728268     0.24979695     0.08679514
Li     -3.82116621     6.55659426    -5.93449600     0.21555059    -0.18007441     0.21744597
Li     -7.83908971     6.69628699    -9.78851592    -0.58155510    -0.52328666    -0.46085482
Li     -7.73554307     6.71691000    -5.74941836    -0.12920437     0.07958497    -0.07988335
Ti     -2.03042519     2.32186799    -4.00196729     0.57260433     1.25175114    -0.94151316
Ti     -5.88226603     6.66641184    -7.90728284     2.39157932     1.58711822     0.04537988
Ti     -7.74480837     4.42968391    -7.68834582    -0.37666135    -1.57554348    -0.59526551
Ti     -7.91119208     4.41522423    -3.75260680     0.53016755    -0.44580742     0.48083844
Ti     -3.79768572     4.35239936    -7.67241494    -0.47648965    -0.16289816     0.31083859
Ti     -4.07815311     4.52348457    -3.74607056    -0.00451306    -0.32066896    -2.54552695
Ti     -6.09631699     8.71285935    -2.08188149     1.25416379    -0.94160459     0.12399444
Ni     -5.77735787     2.33304823    -8.06318826    -1.49554614     0.57935345    -0.05450237
Ni     -5.89009900     2.03085947    -3.97836035    -0.88540363     1.01653393     0.50269690
Ni     -9.79288852     6.48236512    -7.79954543     0.63244186     1.01082089    -0.57012903
Ni     -9.75503556     6.54418570    -4.10093100    -0.83784381    -1.97116907     1.43854064
Ni     -1.97001637     2.05353305    -7.91867413     0.12980604    -0.18245646     0.37952393
Ni     -5.78336349     6.61405694    -3.95483145    -0.96907959    -0.31319457     0.75194732
Ni     -5.86434705     8.62454602    -5.91208429     0.07142420     1.07679376     0.25446659
Mo     -5.94570286     0.07027140   -10.29781898    -2.09754673    -0.35371615     1.16386226
Mo     -5.89692797     0.07663027    -6.31486680     0.43711757    -0.99356965    -1.36917682
O      -1.92068978     1.81317409    -2.06200877     0.02366641     1.36780244    -0.06170418
O      -2.04823456     1.66527385    -5.94019614     0.15869901     1.57883751     0.66132692
O      -5.93470937     6.79593137    -1.90488638     0.43186564    -0.11382528     0.24214837
O      -5.68937796     6.83073943    -5.80925791    -1.15633429    -0.55808178    -1.64932496
O      -5.88468232     1.99182353   -10.07882519     0.61901933     0.36571066    -0.08725577
O      -5.91673980     1.92102187    -5.82594970     0.77088202     0.28347670     0.20473483
O      -9.74721811     6.94176559    -9.68909027     0.07966781     0.76981469    -0.23461638
O      -9.68707804     6.84802158    -5.94298460    -0.27890770    -0.32630493    -1.26312493
O      -4.00243135     2.53058927    -3.88480413     0.94150448    -1.35631742    -0.55511860
O      -3.89866021     2.31774443    -7.93343157     0.67256138     1.47046296    -0.19324551
O      -7.95873764     2.40202784    -3.95600420     0.70393513    -0.31739286    -0.13979374
O      -7.80051176     2.49885250    -8.07329709    -0.37753014    -0.72846699     0.65271806
O      -3.81132212     6.53640877    -3.97776922     0.16049731    -1.33519453     0.70884277
O      -3.92818960     6.34232164    -7.93830480    -0.11041219    -0.05498140     0.02957384
O      -7.93242788     6.31957624    -3.79278547     0.64860337     1.21866187    -1.26332277
O      -7.71006905     6.33498366    -7.85496319    -1.46870496     0.56276779     0.24477840
O      -4.00429616     4.50973054    -2.06119909     0.32225491    -0.06444247     2.67636048
O      -3.82691989     4.38805002    -5.91737186     0.11744867     0.03259959    -0.71704970
O      -7.98524231     4.29885314    -9.93340111     0.24739532     0.61668684    -0.37711911
O      -7.96247832     4.18012450    -5.97460252     0.14019137     0.87637113     0.23059082
O      -3.99020228     0.09705841    -2.07182488    -0.01350289    -0.31973876     0.21402116
O      -7.88993921     8.69951248    -6.15035493    -1.18386062    -0.06715364     0.75294364
O      -7.67090482     0.02500607    -6.06873830    -0.03929132    -0.60738263     0.04276181
O      -7.71269762     0.13076997   -10.12676664     0.23877662    -0.59040944     0.37138794
O      -1.99112894     4.20564800    -4.05607920     0.01204862    -1.08835601     0.48394447
O      -9.81207297     4.61481763    -4.16623565     0.11786981     0.15817166     0.28078958
O      -5.95585124     4.60954265    -4.10841350     0.06776499     0.92662792     0.37928738
O      -5.81249598     4.37899888    -7.88624798    -0.07265871    -0.01583391    -0.26470008
O      -5.90511127     8.60424610    -3.92318045     0.21162932     0.28508838    -0.44135755
O      -5.85383837     8.61559653    -7.85987361    -0.04931102    -2.17383808    -1.20333940
O      -9.82622712     8.33523467    -4.09308304     0.69745351     1.10641372     0.00342793
O      -5.84787760     0.52930673    -8.13690584    -0.08647374    -0.33644471     0.50398291
