# total energy = -630.58610555 eV

CRYSTAL
PRIMVEC
        0.00285542     0.02004370    -7.95977623
       -7.82940539     0.00763210    -3.98158109
       -3.91729101     8.74642787     0.01461334
PRIMCOORD
56 1
Li     -3.88371932     2.19034059    -2.00575474     0.24019341     0.57357700     0.40223876
Li     -3.92583024     2.22684305    -5.97103692    -0.42652028     0.04127057    -0.12597118
Li     -7.74124465     2.31446418   -10.10861444    -0.30098990     0.04191095     0.62458207
Li     -7.68133012     2.29515467    -6.09233869    -0.67157539    -0.18287066     0.82865579
Li     -3.95266698     6.35093447    -1.90690229    -0.12022269     0.16076243    -0.05225124
Li     -3.87856933     6.60741500    -5.90757903    -0.14807595    -0.16771756     0.30425835
Li     -7.95897298     6.47174056    -9.88173432     0.33417699    -0.26965492    -0.36543753
Li     -8.02461033     6.45222245    -5.81682616     0.89045714    -0.13896736    -0.05714153
Ti     -1.93110149     2.26613216    -4.07022271    -0.85839407    -1.35105845    -0.15698199
Ti     -5.96668993     6.89862165    -7.87440558     0.82961680     0.48304694    -0.33977023
Ti     -7.75118459     4.34639340    -7.79389891     0.49462206     1.14325212     0.49467619
Ti     -7.86241043     4.31694219    -3.78707001     0.14216071     0.41938174     0.38210112
Ti     -3.87224484     4.45522208    -7.72488507     1.12284524    -0.16491132     0.58419914
Ti     -4.01654335     4.36221096    -3.79238567    -0.34508167    -0.26386225    -0.34296828
Ti     -2.23876266     0.01013413    -2.23476604     2.21406580    -2.17910748     1.13323994
Ni     -5.78992442     2.41790145    -8.03307569     0.18483644     0.13661703     0.30251293
Ni     -5.79132692     1.85160995    -4.03274548    -0.84762627     0.94117738    -0.11907172
Ni     -9.77995649     6.66716672    -7.86779108    -0.19085021    -0.72990822    -1.65624739
Ni     -9.79184859     6.66055098    -3.97645638     0.33309943    -1.66335368    -0.13536078
Ni     -1.91247218     2.11199562    -7.79698050    -0.33424396     0.24401373    -1.45132704
Ni     -5.91214480     6.50897714    -3.94826871     0.40860269    -0.39989857     0.18178398
Ni     -5.91263962     8.66081359    -5.85504213    -0.41554896     0.38474539    -0.91010064
Mo     -5.96751713     0.18187394   -10.13011442    -1.65204822    -0.31155466    -0.94854295
Mo     -9.78571260     8.67729589    -6.34346379    -0.20811785     1.04559227     0.17541839
O      -1.85085082     1.79031017    -2.14775230     0.06254585     2.00474568     0.68940114
O      -2.07819229     1.72302329    -5.99781762     0.82240049     0.81614510     0.92973325
O      -5.96444435     6.83128487    -1.84238383     0.40820191     0.21040863    -0.83313358
O      -5.85929158     6.82634961    -5.89235587    -0.13912246    -0.08158825     0.36118413
O      -5.81749142     2.08160043   -10.11846602     0.23791810     0.19686264     0.64336333
O      -5.90669511     1.85311528    -5.86913583     1.21502622     0.45814132     0.04602575
O      -9.77457558     7.08474071    -9.82408074    -0.15784551    -1.96691844     1.14300019
O      -9.82280335     6.81627642    -6.09433363     0.30400546    -1.61860723     2.11526977
O      -3.89785114     2.23518181    -3.98433333     0.37423984     0.31592496    -0.05873413
O      -3.78913600     2.55493141    -7.97487850    -0.11398888    -1.48566314    -0.41988388
O      -7.87834317     2.35256210    -4.04143746     0.23349057     0.17671735     0.40409106
O      -7.76410479     2.46484252    -8.07556910     0.02432335    -0.77101570     0.22112809
O      -3.78900050     6.27535133    -3.81570469    -0.53199780     0.77901431    -1.22077192
O      -4.07969193     6.38110002    -7.93150724     0.62070157     0.35082755     0.25404168
O      -7.81666141     6.32792779    -3.87686536    -0.12510046     0.32846940    -0.41337076
O      -7.83169808     6.31048957    -8.01695037    -0.54538838     0.37616606     0.85906536
O      -3.92433952     4.25730016    -2.05664633     0.12400195    -0.09844374     0.93875547
O      -3.97181092     4.21682805    -5.97313021     0.52168545     0.58158096     0.24188836
O      -7.93213312     4.34112645    -9.95452291    -0.05115243    -0.09516977    -0.41561974
O      -7.90182493     4.43864932    -6.02004426    -0.16011146    -0.36039470    -0.68566793
O      -3.96905688     0.04148404    -9.88901396    -1.54677985     0.79010273    -0.11998832
O      -7.91982863     8.60676052    -5.94537786    -0.57461539     0.02711087    -0.44298391
O     -11.56310361     8.65580794    -6.05816085     0.29239084     0.04104547     0.05601643
O      -7.76826421     0.11787141    -9.90938603     1.15920320     0.17563453    -0.36700298
O      -2.05499036     4.04315480    -4.08427635     1.43196905     0.94747186    -0.01365339
O      -9.76624951     4.74618404    -4.04612045    -0.44882161     0.27568581     0.15807354
O      -5.88376709     4.50315499    -4.01156459    -1.17601505     0.57962363    -0.15083670
O      -5.78820296     4.24061658    -7.93114946    -1.68930614     0.76345771    -0.54032924
O      -1.85979109     0.04756706    -3.99529238    -0.43886327    -0.33010173    -0.95988840
O      -5.74659357     8.70589978    -7.84480050    -0.67023377    -1.07088618    -0.44573880
O      -9.71492880     8.53558232    -3.98359523    -0.41902153    -0.02817513     0.20944926
O      -5.82788056     0.63148801    -8.06260338     0.31177866    -0.72890619    -0.91760226
