# total energy = -630.34140980 eV

CRYSTAL
PRIMVEC
        0.00285542     0.02004370    -7.95977623
       -7.82940539     0.00763210    -3.98158109
       -3.91729101     8.74642787     0.01461334
PRIMCOORD
56 1
Li     -3.94957080     2.43017244    -1.81565765     0.32741345    -0.75998326    -0.58988248
Li     -3.88880204     2.43663482    -5.96400379    -0.15916052    -0.56644264     0.04431557
Li     -7.94947000     2.37984409    -9.89382850     0.48955013    -0.11070861    -0.65873479
Li     -7.67748404     2.49903273    -5.73396670    -0.47900939    -0.35483909    -1.40872429
Li     -3.89643079     6.65230996    -1.87401497     0.25505882    -0.10395574    -0.83664620
Li     -3.93094160     6.56952070    -5.70541316    -0.26479520    -0.16318888    -0.39983599
Li     -7.94094234     6.27302625    -9.86694521     0.05181223     0.56971040    -0.31955487
Li     -7.78816857     6.65454207    -5.92281088    -0.16876378    -0.17941981    -0.07198349
Ti     -1.98583478     2.22883790    -3.97365637    -0.20209019    -0.81565414    -0.14789774
Ti     -5.78273245     6.63629786    -8.01391547    -0.92519739    -0.37753557     0.96907917
Ti     -7.85867791     4.40923903    -7.71682256     0.51128171     0.19407685    -1.91598612
Ti     -7.69263951     4.36385307    -3.80646592    -0.47328217     0.22618862     0.03754875
Ti     -3.79401986     4.38756943    -7.66088982     0.31004422     1.30345031    -1.37413572
Ti     -4.01065860     4.40706265    -3.71606768     0.04905496    -0.03832590     0.21335528
Ti     -6.10479185     8.71023371    -2.15078244     0.13163278     0.55506424     0.13978872
Ni     -5.85152322     2.51732365    -8.15951897    -0.33073629    -0.52532487     0.97566661
Ni     -5.80167334     2.04410871    -4.07210121    -0.66048965     0.52376195     0.65697560
Ni     -9.82103864     6.57611466    -7.81465731    -0.02790016     0.31697727     0.19252959
Ni     -9.78516853     6.46553232    -4.00804764     0.63054829    -0.39661983    -0.70176297
Ni     -1.90943930     2.29196769    -7.98102802     0.66085358    -0.47025662     0.41967242
Ni     -5.90827735     6.53027141    -3.90448503    -0.10583228     0.29412380    -0.83506193
Ni     -5.90935266     8.68538931    -5.93702703    -1.04218363    -0.20407003    -0.11901546
Mo     -9.94945520     8.76798732   -10.13842078    -1.61302307     0.09201433     0.07508227
Mo     -5.90405673     0.04343930    -6.25796634     1.36130498    -0.13837008    -2.65171624
O      -1.87679045     1.89262824    -1.96417017    -0.13226066    -0.29222087    -0.46820490
O      -1.96872413     1.84778389    -5.96800818    -0.03915177    -0.28194937    -0.10614912
O      -5.85082922     6.80316139    -2.01361429    -0.19424756    -0.03153102     0.12070642
O      -5.86069473     6.75007013    -5.95351401     0.18506122     0.88023737     0.83912038
O      -5.83798014     1.98396440   -10.09578540    -0.11065357    -0.45166105    -0.41547108
O      -5.86473754     2.00322866    -5.96996351     0.51433160    -0.48431921     0.45541108
O      -9.87747613     6.88464791    -9.65314636     0.53553932     1.00687053    -0.39167504
O      -9.77954101     6.73074558    -6.00488555     0.11692271     0.76835145     0.54721953
O      -3.89644782     2.32147011    -4.00579245    -0.04995151     0.23125076     0.14277958
O      -3.79580366     2.52518304    -7.91398288    -0.59040766    -0.62517796    -0.09947467
O      -7.79398534     2.35369664    -3.98372829    -0.36568417     0.46327091     0.68497071
O      -7.81322767     2.46918825    -8.00398270    -0.09439659     0.19963788     0.12765773
O      -3.95200937     6.36283141    -3.81554019     0.28877643    -0.23259377    -0.29142815
O      -3.92564519     6.37992811    -8.06500819     1.27861362    -0.64648093     1.30104690
O      -7.83586353     6.34637801    -4.03646508     0.28758004    -0.30508677     0.85644275
O      -7.72804718     6.31024097    -7.99189724    -1.44143672     0.43936268     0.21713999
O      -3.91448842     4.23864652    -1.97598661    -0.05009017     0.59810187    -0.24466508
O      -3.81349920     4.43132690    -5.91915046     0.09481986     0.12940485     0.35509003
O      -7.72196824     4.43268197   -10.00705136    -0.43468810    -0.37916755     0.48002361
O      -7.87747605     4.50352997    -6.02637608     0.41064964    -0.54623859     1.88411821
O      -3.94852351     0.02627658    -9.96864838    -1.97014051    -0.05728721     0.55315628
O      -7.93963783     8.65974662    -6.07192098    -1.09824051     0.19881423     0.10490233
O     -11.55021262     8.70436508    -5.78207650    -0.35706094    -0.07488815    -0.80749593
O      -0.09274503     0.03005336    -6.01955744     3.22240996    -0.17362029     0.09374471
O      -2.03347261     4.08555705    -3.96919977     0.80853263     0.56085661    -0.19679738
O      -9.63769165     4.48552263    -4.12595616    -1.67894352     0.30791304     0.67863950
O      -5.83567933     4.12061645    -4.17361096     0.09498920     0.27334674     0.26267661
O      -5.79564865     4.50287313    -8.08316346    -0.18421290    -1.01245153     0.85964332
O      -2.22402699     0.11244419    -4.00783520     1.37578337     0.85895740    -0.24543841
O      -5.87157669     8.44038543    -7.79602974     0.08368563     0.59026141    -1.01604169
O      -9.81133704     8.41541897    -3.98291644     0.41633317     0.22168119     0.74409826
O      -5.99354119     0.65579566    -8.12926933     0.53267450    -0.49813106     1.49291945
