# total energy = -630.72364501 eV

CRYSTAL
PRIMVEC
        0.00279571     0.02951795    -7.98606283
       -7.83802570     0.01298533    -3.99532603
       -3.92160916     8.71933433     0.00634407
PRIMCOORD
56 1
Li     -3.84761786     2.33351822    -2.04881147    -0.79217827    -0.04542938    -0.00600563
Li     -3.98869596     2.16516119    -6.04057416     0.26233865     0.28026068     0.21821763
Li     -7.99300670     2.30230898   -10.07104369     0.64469745     0.27825539     0.10626386
Li     -7.74076637     2.17107787    -6.07891773    -0.27010101     0.01755749     0.36035870
Li     -4.03047301     6.28561950    -1.81617062     0.52623981     0.69774088    -0.74841811
Li     -3.91980764     6.37625038    -5.79183693    -0.02552268     0.11971988    -0.60205842
Li     -7.88559803     6.57651867    -9.96119500    -0.46179080    -0.51590196    -0.04201152
Li     -7.76352476     6.47878826    -5.96389461    -0.00979690     0.12670587     0.37448663
Ti     -1.96220213     2.22057793    -4.06503286    -1.29811887    -0.10827786    -0.10497146
Ti     -5.88225056     6.57511906    -7.99540360     0.40776039     0.71503547     1.08587022
Ti     -7.84255867     4.40289074    -7.76551839     0.08480928     0.50262366     1.12234441
Ti     -7.74714506     4.28093651    -3.86826032     0.09406370     0.83953213     1.59809239
Ti     -3.71697079     4.38925652    -7.75456259     0.71523331    -0.35648575     0.77039264
Ti     -3.99427738     4.47338282    -3.73469146     0.15521527    -1.59967911    -0.04367153
Ti     -6.15423042     8.65753970    -2.05062974    -0.90657206     1.43806941     0.37172908
Ni     -5.81215790     2.43845578    -8.03063484     0.32344707     0.48047006    -0.42954159
Ni     -6.01231091     2.04228487    -4.09951392     0.86791483     0.27822252     0.44072371
Ni     -9.90017084     6.52217730    -7.79064899     1.09614990     0.60528472    -1.43948051
Ni     -9.66682646     6.48367784    -3.94652856    -0.62275673    -0.22885076    -0.82356752
Ni     -1.94579232     2.03382394    -8.09369920    -0.95787113     0.46072842     0.75029848
Ni     -5.84854603     6.56761228    -3.92115366    -1.45209603     0.00932851    -0.75359873
Ni     -1.99085780     0.05809343    -5.95295964    -0.21888740    -0.14981441    -0.12402439
Mo    -10.02351300     8.74450162   -10.19664166     0.43264353     0.39385760    -0.51115200
Mo     -9.71657751     8.68320307    -6.32980326    -0.86968659     0.79357862    -1.36134611
O      -2.01796708     1.95018346    -1.94580573     0.83441821    -0.56385620    -1.09725905
O      -2.03675643     1.95596525    -6.02436644     0.25145595    -0.59280264     0.09449129
O      -6.02487874     6.74001449    -1.96542148     1.25069942    -0.19937018    -0.22596853
O      -5.79877581     6.92232164    -5.94826812    -0.40962387     0.16240620    -0.31648971
O      -5.92049169     1.91796537   -10.16230050    -0.18765044     0.29043415    -0.21439078
O      -5.84245384     2.01674096    -5.94297816     0.30682447    -0.03860167     0.23205988
O      -9.78543998     6.89203717    -9.70702044    -0.89559491     0.48440100     0.25248560
O      -9.76707468     6.81418710    -6.01542474    -0.33055913    -0.76816112     1.21823083
O      -4.03628143     2.40476166    -4.02953217     1.17884444     0.38413930     0.34635383
O      -3.91832854     2.47699601    -8.17734699     0.23061635     0.40105333     1.34534880
O      -7.97612311     2.35621899    -4.03976269     1.32823046    -0.21823579    -0.09890654
O      -7.68184168     2.52376926    -8.08887893    -1.79824170    -0.37443905     0.31870105
O      -3.97169493     6.43708661    -3.90959230     0.88229654    -0.41656746     0.46970505
O      -3.89618832     6.32748756    -7.97777916    -0.21990334     0.20807051     0.41125679
O      -7.79504303     6.43767477    -4.07757318     0.50028336    -0.85415713     0.72923927
O      -7.88066622     6.40395666    -7.92515054     0.46958466    -0.46022299     0.02260844
O      -3.96871389     4.47163391    -1.96359607     0.14957029    -0.46905066    -0.40294110
O      -3.82213383     4.44119553    -5.96969892    -0.01456284    -0.06217936    -0.80202577
O      -7.88064643     4.45521448   -10.05006067     0.07476327    -0.00603578    -0.17998716
O      -7.82782819     4.44140985    -5.95486287    -0.00692899    -0.07677761    -2.01767398
O      -7.96993950     8.74956224    -9.95826720     0.70204499    -0.11229927    -0.30802728
O      -7.87531333     8.72518544    -6.07816933     0.41835146     0.32154813     0.02861305
O      -7.53770983     0.20891147    -6.05979730    -0.67545365    -1.00030831     0.15887978
O      -0.04784448     0.07449965    -6.06092384     0.52998261    -0.15303625     0.11930555
O      -2.02011932     4.14464539    -3.93444641     0.76671116    -0.29454659    -0.22428768
O      -9.61939102     4.50724469    -4.08656305    -2.71221780     1.09676864     0.00071961
O      -5.85830636     4.50173977    -3.98905845     0.02765844     0.20695104    -0.59221797
O      -5.84995566     4.50606843    -7.94206560    -0.11198433     0.09610616    -0.29629905
O      -1.92508516     0.29676212    -3.91205374     0.06233641    -0.07360670    -0.46520783
O      -5.72175017     8.53164543    -8.15324700    -0.51336830    -0.94658881     0.31278878
O      -9.77622515     8.39610239    -4.02904269    -0.05638385     0.12593970     0.81680057
O      -5.86961098     0.64027151    -8.10825710     0.18932401    -1.06834613    -0.09680732
