# total energy = -631.07455828 eV

CRYSTAL
PRIMVEC
        0.00279571     0.02951795    -7.98606283
       -7.83802570     0.01298533    -3.99532603
       -3.92160916     8.71933433     0.00634407
PRIMCOORD
56 1
Li     -3.98444795     2.47370432    -1.89089083     0.23502317    -0.01085226    -0.03718826
Li     -3.99355352     2.48025362    -5.88876819    -0.37849834    -0.43254051    -0.58150793
Li     -7.89576279     2.44895352   -10.06311487     0.12970531    -0.02747750     0.41314763
Li     -7.71750042     1.91960104    -5.95253386    -0.43268994     0.38831133     0.05347447
Li     -3.76433416     6.43120978    -2.05797318    -0.93515263     0.35736205     0.35242931
Li     -3.87343128     6.49621793    -5.91273697    -0.06720862     0.10950593     0.31689392
Li     -7.99940203     6.55393057   -10.04368230     0.88411032    -0.27833812     0.15905665
Li     -7.84290989     6.47681998    -5.85436643     0.39381996     0.32876440    -0.01222432
Ti     -2.03207568     2.02686153    -4.13114713     0.03398083     0.12825458     0.87793399
Ti     -5.96007719     6.38775513    -8.02228432     0.63537579     0.73900621    -0.76250670
Ti     -8.02613179     4.40330351    -7.67624298    -0.41739346    -1.75713623    -0.49922614
Ti     -7.79835761     4.36021527    -3.89035617    -0.12936060     0.33761765    -0.34989209
Ti     -3.80399835     4.51127732    -7.71488051     0.71864061    -1.86269681    -0.77381186
Ti     -4.08037729     4.42117413    -3.80842120     0.87999321    -0.19814942     0.90198392
Ti     -2.15021364     0.03997878    -1.86622538    -0.64123569    -0.66658625    -0.39049593
Ni     -5.95700395     2.41044453    -8.08899920     0.44993914     0.22327934     1.08063998
Ni     -5.95771603     2.13843503    -3.93303073     0.74228226    -0.58424195    -0.67334602
Ni     -9.75187064     6.47089244    -7.88599064    -2.02835253     0.97893848    -0.47099691
Ni     -9.73680610     6.55462055    -4.00433926    -0.46999228    -0.32761374     0.15572182
Ni     -1.96856245     2.08507828    -7.96164115    -0.27554028     0.09222119     0.03713988
Ni     -5.82748600     6.72172182    -3.98565254    -0.58402377    -0.38530257     0.08449686
Ni     -5.80910630     8.67132790    -6.02010467    -1.16593796     0.27639905     0.00735304
Mo     -5.95217320     0.11016201   -10.29162191     0.07614619     0.27942762     1.30931097
Mo     -9.69503044     8.64923438    -6.35586666     0.18395106     1.42695933    -0.17104954
O      -1.90552117     1.90923051    -1.93356946    -0.39445387    -0.05484459     0.72343590
O      -2.07959904     1.82778407    -6.02019174     0.76051773     0.23100903    -0.71051878
O      -5.78534935     6.72137846    -2.02527017    -0.64061107     1.05231027     0.43867559
O      -5.82100584     6.89141551    -5.94866841    -0.37498414    -0.60530145    -0.05348968
O      -5.93344040     2.10219087   -10.06318799     0.10170259    -0.86716513    -0.23419539
O      -5.85121680     1.89930575    -5.79234275     0.38395484    -0.29576533    -0.32325970
O      -9.76330367     6.92054056    -9.75707675    -0.62874250     0.14931974    -0.35791740
O      -9.79005159     6.73377190    -5.98085199     0.85325748    -0.13529598    -0.36413242
O      -3.95772476     2.33611104    -3.92409310    -0.67529373     0.74563835     0.06884348
O      -4.03819641     2.58169772    -7.93895801     0.49025958    -0.08590194    -0.55305365
O      -7.85166080     2.36806747    -3.97603155    -0.37861210     0.17565375    -0.25997774
O      -7.96100175     2.36750628    -7.98854574     0.99226937     0.77162335    -0.37911409
O      -3.87380962     6.37206444    -3.99962399     1.33101363     0.16324045     0.06393287
O      -4.02162924     6.38093311    -7.81109746     0.36819408     0.32402802    -1.03944997
O      -7.84081327     6.37336431    -3.96605104    -0.02039598     0.57967678    -0.32509070
O      -7.93123510     6.33693396    -7.98639340     1.06149534    -0.34792823     0.25694264
O      -3.96787262     4.56758758    -2.02197496    -0.00089883    -1.16159633    -0.36362633
O      -3.91780900     4.39291920    -5.97351038     0.27445030     0.15874428     0.71487378
O      -7.56750300     4.43034788   -10.16100335    -0.79880790    -0.34393649     1.67063076
O      -7.69935977     4.37971200    -5.96883587    -0.51654166     0.12256719    -0.08865507
O      -4.05573595     0.04052740    -9.87017727     0.87905878     0.31034015    -0.68570029
O      -7.85973013     8.63773717    -6.09336228    -0.29712167    -0.22030954     0.01363193
O     -11.49628952     8.72153692    -6.06219522    -0.27281178    -0.48194216     0.07317956
O     -11.65878604     8.75165514   -10.11471290    -0.15447411     0.30147218     0.16629252
O      -2.04843749     4.04043016    -4.04559735     0.37572895     0.34858966     0.05557982
O      -9.75244720     4.69954107    -4.06607511    -0.29035362    -0.28677333     0.42816620
O      -5.85135859     4.88470248    -4.17406456    -0.65340586    -0.44600687     0.04367181
O      -6.01503194     4.43135181    -7.97973965     0.87766528     0.09658326    -0.20745546
O      -2.01813509     0.12086006    -3.86033317     0.30328035    -0.50230759    -0.41404008
O      -5.88866368     8.32145394    -8.07220749     0.03560460     0.59225879     0.66526526
O      -9.68505761     8.41918846    -4.05788123    -0.05420884    -0.18214716    -0.21547898
O      -5.77549782     0.57711224    -8.10711934    -0.69638406     0.10162580     0.21915180
