# total energy = -630.37512061 eV

CRYSTAL
PRIMVEC
        0.00279571     0.02951795    -7.98606283
       -7.83802570     0.01298533    -3.99532603
       -3.92160916     8.71933433     0.00634407
PRIMCOORD
56 1
Li     -3.90355898     2.49456427    -1.89383732    -0.02175482    -0.30841917    -0.47480629
Li     -3.80524557     2.64061845    -5.89477944    -0.44862707    -0.78807413    -0.27515249
Li     -7.93434566     2.43908134    -9.94750122     0.44610429    -0.09443376    -0.58791665
Li     -7.82084314     2.24342197    -6.02097838     0.67350211    -0.19521872     0.70138473
Li     -3.91971196     6.88450562    -2.06607052    -0.19742920    -0.60252782     0.15551000
Li     -4.11725344     6.57202550    -5.86825590     0.82696058    -0.28351077    -0.04034454
Li     -7.89914018     6.15059501    -9.80329358    -0.08674545     0.54009126    -0.60561117
Li     -7.86883396     6.41986066    -5.81911773     0.06176638    -0.00207960    -0.56861504
Ti     -1.90760960     1.97049620    -4.08888279    -1.15172285     0.50794596     0.39676863
Ti     -5.88937931     6.69830802    -8.05803461    -0.21583968    -1.76605195    -0.30559505
Ti     -7.87718646     4.29230865    -7.70788686    -0.30546754     0.64267430    -1.02408669
Ti     -7.81915503     4.35114460    -3.77368238    -0.81683527    -0.92005731    -0.02328739
Ti     -3.90354074     4.36566046    -7.81272221     0.39477345     1.04206304    -0.51329526
Ti     -3.89317252     4.45192931    -3.78305538     0.69455046     0.21290046     1.22263070
Ti     -2.32780885     0.11514206    -1.95506805     0.93195649    -1.11024553    -0.78187035
Ni     -5.84894696     2.35839014    -8.00572536     0.20212272    -0.35071557    -0.23856246
Ni     -5.76725536     2.24331169    -3.97797940    -1.15782018    -0.19943581    -0.00806733
Ni     -9.70657899     6.64765184    -7.98216475    -0.94294789    -0.25496705     0.63223313
Ni     -9.76135324     6.57510242    -4.12284940    -0.72342011    -0.17913179     0.69117352
Ni     -1.87101816     1.98858309    -8.01041035    -0.12091341     0.46600566     0.42406292
Ni     -5.99382883     6.38386091    -3.98979700     0.90393419     1.00357373     0.81024587
Ni     -6.00021610     8.67929974    -5.91336286    -0.40002944    -0.91243771    -0.08745089
Mo     -6.11453696     0.09666162   -10.20667883     0.00671939     0.96942589    -1.12046493
Mo     -5.81866217     0.02726239    -6.36765395    -0.04252973     0.71500053    -1.12153939
O      -1.81246926     1.96026260    -1.95751792    -0.88696999    -0.62843241    -0.04258553
O      -2.04550777     1.78842963    -6.10282924     0.44434085     0.75126517     0.92904978
O      -5.88655982     6.75240907    -1.99430094    -0.92405362     0.66488379     0.06175242
O      -5.96584791     6.81648245    -5.79055049    -0.17711445     0.12707125    -0.92778062
O      -5.89010387     2.08471930   -10.01571446    -0.24370260    -0.91282483    -0.46773890
O      -5.73278845     1.99682125    -5.90087958    -0.31495207    -0.20253826    -0.23599656
O      -9.69205246     7.00011626    -9.93654006    -0.15633593    -0.41668845     1.06369398
O      -9.81139427     6.81527991    -6.09277170     0.42208455    -0.06336330     0.62837512
O      -3.90060813     2.33480314    -3.89891171     1.04815978     0.89061033    -0.71632888
O      -3.88564522     2.46777708    -8.00254947     0.24988883     0.13507402     0.34503063
O      -7.76387740     2.41486369    -3.91416376    -0.44384288    -0.75831928    -0.59852508
O      -7.86116950     2.35038995    -8.06517989     0.44639308    -0.67433538     0.30760185
O      -3.71507365     6.42501357    -3.91366776    -1.04621743    -0.72724019    -0.97746738
O      -4.07149502     6.46150069    -8.01474583     1.07702744    -0.26695491     0.36654672
O      -7.90915295     6.27692458    -3.91123271     1.06744604     0.74946188    -0.28299541
O      -7.87033255     6.22794699    -7.86824879     0.59014626     0.88534603    -0.65719248
O      -3.87754043     4.43513641    -2.02111622     0.03123852     0.03482587     0.09781140
O      -3.65520128     4.53294011    -6.06861279    -0.54258038    -0.09166341     0.73417051
O      -7.83990949     4.32406829    -9.98222285    -0.11108068     0.05876321     0.14884638
O      -7.76872252     4.25243007    -6.00253528     0.24455362     0.02583058     1.87173102
O      -4.04744764     0.25243154    -9.99973299     0.10462391    -0.08400692     0.04413307
O      -7.99404421     8.68909087    -6.01099375     1.28891702    -0.31586202     0.08924976
O      -7.60137439     0.09079151    -6.06338552    -0.21192313     0.00456891     0.27427710
O      -3.97077499     8.70388726    -6.06465242     0.47923237     0.15790590     0.01637449
O      -1.93365635     4.08781275    -3.85118095    -0.35946634    -0.91225257    -1.04416963
O      -9.75452581     4.76623649    -4.08363393    -0.34132131    -0.74064881    -0.27364685
O      -5.81492995     4.22278361    -4.00873055    -0.23799188     0.63993628    -0.41039198
O      -5.88644462     4.38657936    -8.00512469     0.74034989    -0.33202002     0.15172331
O      -2.05122226     0.04966675    -3.96769504     0.37279892     1.69959312     0.78679698
O      -6.02182373     8.49280999    -7.99051338     0.00869662     0.73067505    -0.07803442
O      -9.68333018     8.54819260    -3.99905113    -0.63346757     0.08581235     0.14985401
O      -5.77329875     0.41229403    -8.22466343    -0.48205423     1.15418657     1.49566741
