# total energy = -630.56630446 eV

CRYSTAL
PRIMVEC
        0.00279571     0.02951795    -7.98606283
       -7.83802570     0.01298533    -3.99532603
       -3.92160916     8.71933433     0.00634407
PRIMCOORD
56 1
Li     -3.93297145     2.05097014    -2.06820083     0.03832717    -0.21567508     1.06752028
Li     -3.89836173     2.14425784    -5.98692565    -0.43510662     0.18806678    -0.09895342
Li     -7.91411323     2.10996196   -10.15996522     0.38316349    -0.00236265     0.73298085
Li     -7.72651748     2.48400823    -5.93785935    -0.33540582    -0.38211686    -0.03430829
Li     -3.83016817     6.29413473    -1.72773812    -0.17249869     0.25493574    -1.21359845
Li     -3.92494921     6.51584319    -5.86789142     0.36710828    -0.17765575     0.21250248
Li     -7.79006507     6.60457472    -9.82552219    -0.29245709    -0.16215795    -0.33918343
Li     -7.78842199     6.37513832    -5.89042089     0.25046754    -0.12273024    -0.61906947
Ti     -2.06341708     2.26216306    -4.01576679     1.05705018    -0.45781800     0.55569065
Ti     -5.81522936     6.91162122    -7.93981020    -0.00131249    -1.21670213     0.93946072
Ti     -7.86490522     4.35959558    -7.82004990     0.74069332    -0.11046855    -2.29196581
Ti     -7.93753396     4.46617557    -3.74108621    -0.07649811    -0.34646107     2.16203534
Ti     -3.99482260     4.29020325    -7.66167337     0.07745685    -0.14749550    -0.78824097
Ti     -4.09967149     4.39865948    -3.66030539    -0.04642506     0.44136791    -0.35930079
Ti     -5.54908414     8.68064787    -2.06950154    -0.25953346     0.50758553    -1.52198413
Ni     -5.98021298     2.29060938    -8.17234240     0.92276087     0.71119131     0.46147645
Ni     -5.91417498     2.25871545    -3.99596882    -0.11615187    -0.15257691    -0.78426285
Ni     -9.79832980     6.60697048    -7.88640354     0.67047842    -0.42817441    -0.12398469
Ni     -9.81024133     6.41603610    -4.17252537    -0.54186410     0.23084228     1.57166995
Ni     -1.91699824     2.35427871    -7.87543736    -1.03544656    -0.59959821    -0.83954643
Ni     -5.98466525     6.57123501    -3.94127190     0.92416158     0.58275754    -0.59726237
Ni     -5.94717776     8.67186911    -5.94397655     1.31135385    -0.34629343     0.68081362
Mo     -9.84635612     8.67764070   -10.29640388     0.57960667    -0.37171415    -0.08278315
Mo     -9.64283768     8.71699641    -6.39732559    -0.51688858     0.98209811     0.01347946
O      -1.92280974     1.83358688    -1.90334815    -0.28220251     0.23653316    -0.77383984
O      -1.96072498     1.79194408    -5.90281294    -0.42131212     0.40792451    -0.58643947
O      -5.82008241     6.69213006    -2.04421012    -0.17831532     1.38201435     2.03114428
O      -5.80111429     6.73339713    -5.97432733    -1.26705222     1.10901070     0.04750945
O      -5.88479218     1.98696805   -10.16780962    -0.62163040    -0.27381353     0.57964006
O      -5.86663586     1.91410032    -5.90594113     0.10975149    -0.34110665     0.22499623
O      -9.71564542     6.83232825    -9.78858921    -1.11037172     0.36068195     0.71069162
O      -9.69538202     6.83747080    -6.00509944    -0.42040545    -0.63298972    -1.17768737
O      -3.99253262     2.37572740    -3.96629669    -0.23769785    -0.07404847    -0.00682481
O      -3.96880609     2.38010911    -7.99266103     0.85566350     0.42465258     0.14915672
O      -7.85778895     2.61054365    -4.02934260     0.18863388    -1.96566357    -0.07704988
O      -7.94283523     2.34437989    -7.95719797     0.11233441     0.55843270    -0.31944858
O      -3.78577536     6.29069385    -3.87390250    -0.22419245     0.51527392    -0.31954210
O      -3.92586210     6.35420735    -7.86800335    -0.87314552     0.13968594    -0.39526791
O      -7.95009587     6.31307456    -4.06100007     0.54745814     1.40718077     0.11375333
O      -7.74924869     6.31574494    -7.88313038    -0.00786668     1.00214314    -0.57021828
O      -3.91982936     4.47300850    -1.91605079     0.11670752    -0.80708713    -0.38155285
O      -3.94787282     4.37719741    -5.92964701    -0.05801009    -0.11764834     0.67035124
O      -7.87766028     4.42343018    -9.93159415    -0.51853718     0.09065992    -0.70753929
O      -8.04606566     4.40011408    -6.12388822     0.21425891    -0.03285302     2.29669875
O      -8.02082579     8.71685522   -10.00818914    -0.64378168     0.24429964    -0.15906911
O      -3.96277230     0.06554361    -6.11792224     0.54055434    -0.38374167    -0.02847356
O     -11.51931002     8.72936675    -6.13231652    -1.54120611    -0.44901426     0.35011790
O      -3.92454703     8.69430908    -5.95360200     1.31546378     0.09429792    -0.43801261
O      -2.10026488     4.09797510    -4.03371299     0.85676170    -0.27348992    -0.05273117
O      -2.04568544     4.58310381    -7.96499017     0.52321812    -0.56744085    -0.35234537
O      -5.99694358     4.57932155    -4.02053823     0.59185712     0.40951909    -0.07255097
O      -5.86746925     4.15718940    -8.11343788    -1.44055202     0.25846714     0.59061869
O      -6.01268781     8.69578129    -3.89227854     0.45523829     0.30381204     0.39228349
O      -5.79151773     8.71350555    -7.94176067     0.07734849    -0.97488253    -1.35400880
O      -9.81276186     8.31381823    -4.11177358    -0.12413634     0.53700302     0.31089954
O      -5.89563795     0.52300222    -8.17337342    -0.09954539    -0.95172950     0.68391738
