# total energy = -631.07776599 eV

CRYSTAL
PRIMVEC
        0.00285542     0.02004370    -7.95977623
       -7.82940539     0.00763210    -3.98158109
       -3.91729101     8.74642787     0.01461334
PRIMCOORD
56 1
Li     -3.94595777     2.30567155    -1.97048592     0.01016346    -0.37314548     0.16438635
Li     -3.97958107     1.92827759    -6.06894439     0.06698972     0.61536675     0.25846355
Li     -7.81421629     1.97264982   -10.02205178    -0.21537069     0.62183005     0.43107026
Li     -7.90574017     2.43820260    -5.93154919     0.54515949    -0.25832022     0.52488780
Li     -3.93791921     6.38175023    -1.88893180    -0.21900581     0.30960306    -0.29606585
Li     -3.78140938     6.23758084    -5.81148232    -0.18087966     0.34208677    -0.37230519
Li     -7.72316684     6.38304813    -9.79603722    -1.04941623     0.33700174    -0.16943545
Li     -7.69970345     6.54617533    -5.86107071    -0.57939377    -0.16544757    -0.29203151
Ti     -1.97062893     2.28151849    -4.11215377    -0.58009223    -0.53339264    -0.36099882
Ti     -5.86284505     6.70021491    -7.82613378     0.34309506    -1.01427001    -1.10682681
Ti     -7.84130644     4.39128286    -7.69758032     0.61889093     0.48531560     0.02277013
Ti     -7.89819237     4.35041845    -3.61038503     1.48704999    -0.25232396    -0.15528869
Ti     -3.71987835     4.36742379    -7.81869708    -2.39050065     0.32779972     3.06014174
Ti     -4.11862848     4.36884396    -3.76183860     0.31580100    -0.31864977    -2.36383059
Ti     -1.89446060     0.01114838    -2.15956052     0.44570286    -0.97851942    -1.03285148
Ni     -5.88539749     2.45587664    -7.92888199    -0.11918738     0.53797956    -0.25247826
Ni     -5.87702866     2.02364851    -3.96068839    -0.47488852     0.37039068     0.67362665
Ni     -9.85941950     6.59780376    -7.87600178     1.08698197    -0.00187502     0.23543698
Ni     -9.75715101     6.51970776    -3.97175867     0.15972792    -0.37785993    -0.21355951
Ni     -2.02993695     2.12093485    -7.95881923     1.55892786    -0.16127981    -0.41912531
Ni     -5.87033727     6.59825895    -3.94285276    -0.15760493    -0.38666888    -0.08149342
Ni     -5.79053057     8.73953370    -6.09777718     0.10418701     1.59065676     1.40995323
Mo     -5.86563645     0.12199857   -10.19258235     0.53437046    -1.54000331    -0.84124281
Mo     -9.79776665     8.69571616    -6.29902577    -0.66947610    -0.69184753    -0.41129696
O      -1.86781383     1.86510312    -1.94665312    -0.80492469     1.08599870     0.02168676
O      -1.94295821     1.88823516    -6.12484992    -0.39330292    -0.54674971     0.77532150
O      -5.96625092     6.79889886    -1.95284151     0.48513450     0.28936166    -0.43153934
O      -5.73560462     6.93875767    -5.94000530    -0.32608068    -0.65235833     0.70056241
O      -5.92326398     2.01189878    -9.96847543     0.63582642     0.86149049    -0.81611748
O      -5.94370096     1.84776924    -5.78970155     0.01643821    -0.08159193    -0.50400013
O      -9.75642008     6.85478684    -9.77380948     0.02752041     0.98604785     0.21479949
O      -9.88040362     6.74987292    -5.96715959     0.79441766     0.48807233    -0.41126456
O      -3.95965788     2.27863921    -4.02632433     0.43463526     0.70909271     0.34386947
O      -3.86288520     2.47071553    -7.96457319    -0.74179051    -0.40396190    -0.27484915
O      -7.81744716     2.36239634    -3.90277038    -0.28343322     0.86928720    -0.33562691
O      -7.85251542     2.40960047    -7.94253458    -0.05159123     0.70046221    -0.04536861
O      -3.83449941     6.30374580    -3.89668610    -0.93792177    -0.06173224    -0.11103764
O      -3.90973230     6.38406596    -7.92843608    -0.27198977    -0.57947491    -0.00939397
O      -7.85435855     6.38114511    -4.06509271     0.30525284    -0.60907511     1.37101725
O      -7.84313695     6.38482413    -7.83594611     0.22973549    -0.14093159     0.00895009
O      -4.12293157     4.29178067    -2.03449361     0.47148311    -0.03725674     1.81870248
O      -4.02298333     4.34832480    -5.97432470     0.74919774     0.05087049    -1.71181314
O      -7.94544394     4.47306333    -9.78872766     0.25441135    -0.04803424    -1.57438346
O      -7.85791141     4.38216918    -5.94735701    -0.44360196    -0.11170123    -0.13610671
O      -4.00140080     0.17484751    -9.92901241    -0.52131743    -0.21906831    -0.25178420
O      -8.00210873     8.71107006    -6.26200696     0.01511862    -0.31701469     0.81016922
O      -3.91121383     8.56755724    -2.06833633     0.03904034     0.41203326     0.05508179
O      -7.69970422     0.13375939   -10.04170863     0.42205550    -0.66885456    -0.08630168
O      -2.03950010     4.15121339    -4.08404303    -0.03466885    -0.41588962     0.63074722
O      -9.73572198     4.55776112    -4.03695265     0.08026864     0.79884109    -0.18196395
O      -5.98899732     4.55199967    -4.08215070     0.05414926     0.30850122     0.58107212
O      -5.85149950     4.38629712    -7.90917762    -0.68099006     0.17008423    -0.34439954
O      -1.86442772     0.28889300    -4.11365321    -0.58520825    -0.66697961     0.81568598
O      -5.93283790     8.50912818    -7.98204547     0.39115000     0.21438721    -0.32408078
O      -9.76328835     8.37663488    -4.05951550     0.08006407     0.25553064     0.55567572
O      -5.98388713     0.66283812    -8.03039612     0.05723349    -1.03136232     0.34263247
