# total energy = -630.41426970 eV

CRYSTAL
PRIMVEC
        0.00285542     0.02004370    -7.95977623
       -7.82940539     0.00763210    -3.98158109
       -3.91729101     8.74642787     0.01461334
PRIMCOORD
56 1
Li     -3.99470199     2.37367080    -1.73395009     0.00725997    -0.46614352    -0.66623562
Li     -3.92586480     1.99420316    -6.16676345    -0.17001544     0.17974176     1.27179130
Li     -7.88036826     2.17075317    -9.89634208     0.31190072     0.02231016    -0.04312215
Li     -7.83226455     2.05161716    -5.99176234     0.13835138     0.49845358     0.20820358
Li     -3.78630294     6.43802942    -1.96545558    -0.48229828    -0.10908362     0.17196623
Li     -3.85341528     6.57031584    -5.88855831    -0.08796095     0.00998627     0.43302989
Li     -7.77287602     6.34637430    -9.92249826    -0.22028906    -0.00460968     0.07565481
Li     -7.84998450     6.55757516    -5.72752273     0.01458203    -0.18325961    -0.82876304
Ti     -2.04800703     2.32602082    -3.99533330    -0.31538241    -0.31406954    -0.85019114
Ti     -5.80296390     6.89052506    -7.92407256    -1.48117048    -2.36387175    -0.64555833
Ti     -7.90897678     4.42200067    -7.75969498     0.43464677     0.50764243    -0.79670348
Ti     -7.91844215     4.22154301    -3.84328419     0.49016117     0.66191701     0.57301043
Ti     -3.84528180     4.48536196    -7.63652607    -0.38410186    -2.35928385    -0.08847620
Ti     -4.14090229     4.42996081    -3.68707203     0.21003683    -0.48688963    -0.56872407
Ti     -1.81940498     0.04369684    -2.21120374    -0.95004937    -1.98236079    -0.74128391
Ni     -5.85870017     2.50082947    -7.96621789    -0.87296285    -2.17600844    -0.29893214
Ni     -5.93161570     2.06369080    -3.98043078     0.54382525     0.24603610     0.80181487
Ni     -9.72982346     6.65597115    -7.91702847    -0.86934350    -0.17730933    -0.61712782
Ni     -9.69978408     6.51954380    -3.85197963    -0.56068733    -1.83038934    -1.09947808
Ni     -1.99548646     2.05090340    -7.92488755     0.19861534     0.21317466     0.17251966
Ni     -5.89169288     6.53473121    -4.01964214    -0.54337379     0.38160393     0.56712575
Ni     -5.85714826     8.67868466    -5.87173372     0.35761450     0.37259194    -1.34786502
Mo     -9.73551802     8.76290145   -10.28361833     0.56365218     1.34532568     1.65535484
Mo     -9.77645268     8.71530365    -6.25401365     0.92104043    -0.30998818    -2.70414394
O      -1.98857276     1.90697625    -1.99143112    -0.00547971     0.47350889     0.08788037
O      -1.97465850     1.73522681    -5.97538599     0.30661502     0.95127903    -0.10272914
O      -5.95185950     6.82008266    -2.00432574     0.96666083     0.62989057     0.67271525
O      -5.83999935     6.86187995    -5.90987166    -0.03967287    -0.20776504    -0.04654254
O      -5.96504753     1.99113644   -10.04663388     0.83810828    -0.32427864    -0.41241749
O      -5.93197786     1.83275431    -5.79741100     0.18757440     0.67597619     0.05616504
O      -9.77087666     6.75207034    -9.85857370     0.62622353     0.73553085     0.84792486
O      -9.76810256     6.74861305    -6.09657382    -0.08054525     0.66232216     1.03322365
O      -3.92710990     2.39726798    -4.07707799    -0.74468687    -0.11970214     0.87853348
O      -3.93190577     2.48762671    -7.86304343     0.48295563     0.23155568    -0.65077099
O      -7.81567173     2.29928214    -3.97843226    -0.52333047     0.05258681    -0.22022353
O      -7.79867092     2.45474298    -7.88907208    -0.95645101    -0.21931792    -0.73855110
O      -3.92988274     6.32524631    -3.88873429     0.92787845     0.11929946    -0.27935720
O      -3.92199964     6.31959140    -7.96893702    -0.42671370     1.64057881     0.18788764
O      -7.80579443     6.50614448    -3.86812656    -0.16824543    -1.24877657    -0.40939558
O      -7.79886586     6.41899850    -7.87537399     0.44566640     0.24051985    -0.46653532
O      -4.02740506     4.26554079    -1.91372661     0.03716318     0.33283726    -0.99977592
O      -4.04712962     4.32765881    -5.90819886     0.19280905     0.53285348    -0.12034778
O      -7.83055476     4.36693288   -10.05059707    -0.58982611    -0.17675052     0.32307248
O      -8.13162611     4.36898179    -6.06475575     0.25524259     0.28182218     2.45427028
O      -3.97536466     0.12291655    -9.90496212    -1.20725971    -0.27019882    -0.44981140
O      -8.01139891     8.75032633    -6.08592724     1.38360787    -0.44323919     0.16482324
O      -7.75187644     0.02124728    -6.15270256    -1.44493457    -0.50743628     0.43998565
O     -11.53263528     8.68882043    -9.97197009    -0.26659342    -0.03101983     0.14953563
O      -2.04384803     4.14753360    -4.14196344    -0.44020168    -0.09560370     0.15168753
O      -9.78061025     4.57804709    -4.00059360    -0.76082063     0.72088120     0.38865426
O      -6.02001415     4.60534352    -4.07184235     1.02896842     0.13686692    -0.13588687
O      -6.04935520     4.32115805    -7.97254417     2.41066852     0.72045887     0.18969687
O      -2.05616749     0.10911190    -4.07932742     0.36180994     0.30352614     2.04333892
O      -5.62458917     8.61137690    -8.02977219    -0.35086701     1.35082280     0.26902422
O      -9.81458530     8.30640648    -4.08791681     0.21317954     0.67640834    -0.62586810
O      -5.90487603     0.58263819    -8.02669080     0.24534514     0.08047330     0.77537455
