# total energy = -630.88123358 eV

CRYSTAL
PRIMVEC
        0.00285542     0.02004370    -7.95977623
       -7.82940539     0.00763210    -3.98158109
       -3.91729101     8.74642787     0.01461334
PRIMCOORD
56 1
Li     -3.85108070     2.32265899    -1.86367652     0.01809019    -0.31220165    -0.11908636
Li     -3.93178675     1.96349716    -5.98427969     0.30921816     0.16244840     0.18262353
Li     -7.59642167     2.40757951    -9.80239463    -0.75411641     0.10764145    -0.81013888
Li     -7.80050326     2.11942582    -5.92336307     0.26563480     0.14172724     0.06160288
Li     -3.84328783     6.55348329    -2.00331077    -0.03579588    -0.30915632     0.18199360
Li     -3.89345246     6.28232755    -5.78876920    -0.02717409     0.11677025    -0.30082074
Li     -7.84452715     6.42382077   -10.07596356    -0.22025435     0.19018316     0.77221292
Li     -7.87328276     6.73329939    -5.90525495     0.19121842     0.04510275     0.33230398
Ti     -1.94842031     2.18657306    -4.09605918    -0.19810778     0.76648890     0.71242805
Ti     -5.85379408     6.74663761    -7.97931549     1.14992741    -1.18963233     0.55757489
Ti     -7.79888021     4.46048712    -7.63448814    -0.56796059    -1.17090635    -1.90821473
Ti     -7.95057169     4.40915012    -3.73727744     1.11254556    -0.40270686    -1.73419235
Ti     -3.85006641     4.24889230    -7.61478325    -0.56737201     1.92101930    -0.32453634
Ti     -3.96275336     4.34937190    -3.76326393    -0.91189244     0.00547370    -0.53466991
Ti     -6.09808510     8.68483028    -2.04103756     0.88401371     0.66915087    -1.06434904
Ni     -5.87467263     2.38559993    -7.86317006     0.45915430     0.35018555    -0.92983417
Ni     -5.82877725     2.16693245    -3.98565755    -0.32782565    -0.55061113    -0.30687433
Ni     -9.72582029     6.60022880    -7.88771737    -0.64921152    -0.19385482    -0.17228632
Ni     -9.86412439     6.52488778    -3.92732002     0.03947603    -1.11039948    -0.32997444
Ni     -1.76220657     2.12523083    -8.02653843    -1.34177586    -0.42414296     1.37236331
Ni     -5.87522960     6.62541691    -4.03185001    -0.09025203     0.15253854     0.24606423
Ni     -5.86160611     8.74197490    -5.95191182     0.09888431     0.14456424     0.55531184
Mo     -6.03042432     0.11112408   -10.24871422    -1.43540935    -0.78525820     0.56489573
Mo     -9.83571131     8.73603787    -6.40878063     0.29653118    -0.51304159     0.60058703
O      -1.82383685     1.85219342    -1.90417753    -0.67589692    -0.17239565    -0.76772569
O      -1.85671889     1.89257266    -5.92760330    -0.56508151    -0.64347216    -1.09045692
O      -5.69946352     6.72448883    -2.06182235    -1.43672502     0.85464824     1.08271516
O      -5.74757040     6.88035860    -5.87519898    -1.14141012     0.69220985    -0.75947416
O      -5.80358782     1.99313767   -10.09144687     0.23423287     0.15649545     0.07124953
O      -5.79894859     1.82654107    -5.86489959    -0.76796855     1.52988718     0.95290616
O      -9.88616626     6.90371602    -9.69069261     1.17299609     0.90117915    -0.89443875
O      -9.81184717     6.86928349    -6.05312058     0.42996253    -0.88817417     0.74020882
O      -3.92236471     2.29234396    -3.96077990     0.65094668     0.08452302    -0.17062019
O      -3.86462957     2.42333201    -7.87488905     0.06831756    -1.10291120    -0.41705825
O      -7.80012304     2.34635621    -3.88681352     1.29148381     1.05542604    -0.53904640
O      -7.72369207     2.43689757    -7.98467489    -1.11048222     0.39354924     0.87333482
O      -3.70048604     6.24999842    -3.92377098    -0.48355194     0.75034550     0.21611978
O      -3.99321148     6.32884832    -7.75582319     0.21685776    -0.12086339    -1.15064916
O      -7.92993873     6.38288934    -4.01342016    -0.05111404    -0.10260190     0.45118998
O      -7.79590914     6.37222327    -7.90725464     0.02336694     0.59426959    -0.25821478
O      -3.81597455     4.18649454    -2.04399982    -0.43022500     0.44753807     1.24016106
O      -3.92377832     4.25221912    -5.87087401     0.06062482    -0.04588648    -0.13965611
O      -7.86734440     4.33458612    -9.97036526     0.09315275     0.52529819     1.02979934
O      -8.07213232     4.32169433    -5.96625115     0.11340598    -0.23674579     1.73160211
O      -3.95112955     0.04010888    -9.90663081    -1.16487374    -0.35405519    -0.12699289
O      -7.98692423     8.75116027    -6.02953449     0.06232528    -0.45853147    -0.42169012
O      -7.70504863     0.05587229    -6.09866418     0.23588252    -0.53533887     0.26485572
O      -7.82945318     0.12903556   -10.00788476     1.80974068     0.02636037    -0.34724237
O      -2.01133534     4.09117477    -4.08284581     1.10881355    -1.00658012     0.05066653
O      -9.84969799     4.67574755    -3.94054556     0.12067062    -0.19515913     0.02062270
O      -5.94218400     4.77180969    -4.18728573     0.22800572    -0.26187818     0.81412647
O      -5.90816906     4.44258723    -7.91735850     0.88073780    -0.78458445     0.25926006
O      -2.07501321     0.02050124    -4.00386936     0.51897552     0.37476009     0.71866852
O      -5.80700666     8.55133441    -7.96592744    -0.16205352    -0.25238824    -0.51523722
O      -9.85781473     8.34455384    -3.99284498     0.17324356     0.43946543    -0.33815831
O      -5.97785630     0.54290471    -8.15695874     0.67777999     0.38862469    -0.11289820
