# total energy = -630.20010689 eV

CRYSTAL
PRIMVEC
        0.00279571     0.02951795    -7.98606283
       -7.83802570     0.01298533    -3.99532603
       -3.92160916     8.71933433     0.00634407
PRIMCOORD
56 1
Li     -3.63786227     2.26577757    -1.84841230    -1.22268501     0.09576016    -0.17946140
Li     -4.04254192     2.13061270    -6.07321313     0.52264133     0.07552573     0.18344939
Li     -7.73120554     2.32361758    -9.82799229    -0.21779888    -0.05301381    -0.67682263
Li     -7.75339853     2.32823756    -5.95320004    -0.24555746    -0.04774979     0.15253071
Li     -4.04699085     6.14651915    -1.89910383     0.82362632    -0.01390773    -0.32158011
Li     -3.97545210     6.54435720    -5.93564773     0.49070742     0.10851213     0.40804228
Li     -7.86887795     6.82309607   -10.07375945    -0.03918501    -0.60737608     0.48852758
Li     -7.82605165     6.29436630    -5.86578734    -0.46371873     0.37769737    -0.46231268
Ti     -2.08236053     2.07619741    -4.09078627     0.44789194    -1.74394821     0.39794974
Ti     -5.79166535     6.40215978    -7.89642125    -1.77572547     0.11391078    -0.96840180
Ti     -8.00411761     4.35848552    -7.72686209     0.11182618     0.52490437    -0.94339777
Ti     -7.83998914     4.32867043    -3.67792727    -0.15496066     0.63929002     0.46445013
Ti     -3.67376009     4.32352013    -7.68298718    -0.51523745    -0.22989388    -0.77509298
Ti     -4.00043681     4.37925181    -3.81636529    -0.35379983    -1.06357138     0.48164008
Ti     -5.91013298     8.70868777    -1.83436000    -0.51335829     0.26884605     0.18207496
Ni     -5.78566550     2.45369019    -8.01818940    -0.15871920     0.99332185    -0.17178740
Ni     -5.78605627     1.97182201    -4.03191773    -0.93425223     0.71184550     1.17333626
Ni     -9.83430352     6.80037788    -7.97330018     0.10939206    -1.24391133     0.19720558
Ni     -9.84744101     6.56155957    -4.10220480     0.88770300    -0.90919225    -0.31581865
Ni     -1.73953211     2.15550757    -7.91651064    -1.10325541    -0.55543618     0.14979048
Ni     -5.93644134     6.56918436    -4.00370762     0.17527848     0.43719300     0.14144676
Ni     -5.93619053     8.67883303    -6.02793297    -0.21492562    -0.14980268     0.74135494
Mo     -5.93064122     0.19956681   -10.31835186    -0.50827264    -0.68086866     0.60260950
Mo     -6.02585103     0.06110625    -6.45640326     0.18102004    -1.05250688     1.62895877
O      -1.88515333     1.96333459    -1.80038133     0.63723067    -0.81830121    -0.80473916
O      -2.01469193     1.86621479    -5.95820107     0.55877297    -1.03961296    -1.35607255
O      -5.75773298     6.72081849    -1.92562529    -0.78143013     0.68765269    -0.23158271
O      -5.97560766     6.82017374    -6.02559623     0.89024682     0.33983142     0.80557642
O      -5.79260159     2.06659618   -10.10588055     0.41424562     0.19366335    -0.26620672
O      -5.87039737     1.99782418    -5.82184092     0.27735623    -0.21317100    -1.31342062
O      -9.82472925     7.05942809    -9.82867095     0.75614753    -0.87018325     0.12769857
O     -10.09237544     6.79380904    -6.11221145     0.64023749     0.70837774    -0.03472751
O      -3.92819724     2.24221964    -3.93323557    -0.28064065    -0.16122486    -0.49694826
O      -3.84819814     2.45418024    -8.00058629     0.25937769    -0.06196962     0.75505763
O      -7.70218253     2.35155666    -3.92794009    -0.24259903     0.83981656     0.35035235
O      -7.69790565     2.48424277    -8.02270864    -0.23528396    -0.34487137     0.61674707
O      -3.76744503     6.22982625    -4.00777600    -0.85741235     1.17192688    -0.23663746
O      -3.88196504     6.30780865    -7.88509904    -0.47002064     0.15273244    -0.14807099
O      -7.85994693     6.35826418    -4.02423641    -0.38063062    -0.20362865     0.64629498
O      -7.87568644     6.30414181    -7.89143603     0.13027654     0.19354165    -0.33919434
O      -3.90276895     4.15267044    -2.04628303    -0.36831650     1.05926954    -0.60312772
O      -3.88619653     4.26303262    -5.95147932     0.01244394    -0.05488024     0.43299117
O      -8.03777596     4.44250450    -9.87365825     0.35310328    -0.27587978    -1.88338809
O      -8.00281910     4.31326947    -5.98358696     0.22280200     0.07980859     0.26214349
O      -7.78938016     8.73234697    -9.82223454    -0.40679209     0.49137378    -1.06594309
O      -8.25107170     8.56072907    -6.01498539     1.00678506     0.62887586     0.04226475
O      -7.80209379     0.27004538    -5.97828786    -0.08157125    -0.85155581    -0.53100893
O      -7.67177304     0.15625951    -9.93123347     0.33751497     0.30674740    -0.33602762
O      -2.09590727     3.87873313    -4.14669396     1.24289459     1.63360723     0.79535604
O      -9.75021441     4.64627685    -4.24067168     0.28863614     0.38596099     1.25966707
O      -5.96067879     4.64957975    -4.08317147     0.44706962     0.34954379     0.44195265
O      -5.82788548     4.45223219    -7.94638283    -0.11047329     0.02142394     0.06286468
O      -2.06843267     0.01515269    -4.03587191     0.34188162    -0.05421217    -0.02560762
O      -5.86386353     8.43735310    -7.93355559     0.36142275    -0.34234082     0.20620453
O      -9.94621496     8.41063369    -4.10729656     0.32155200     0.12605825     0.82450953
O      -5.73990035     0.65005819    -8.15514168    -0.57169106    -0.00548301    -0.30347597
