# total energy = -630.19203395 eV

CRYSTAL
PRIMVEC
        0.00279571     0.02951795    -7.98606283
       -7.83802570     0.01298533    -3.99532603
       -3.92160916     8.71933433     0.00634407
PRIMCOORD
56 1
Li     -4.07281690     2.38377014    -1.98386166     0.54053957    -0.17750293     0.33975863
Li     -3.86942361     2.38958350    -6.07791897    -0.05770510    -0.36881549     0.29239115
Li     -8.00429301     2.29949360    -9.93545104     0.89501947    -0.03473818    -0.15029892
Li     -7.93478196     2.23276713    -5.70575051     0.72787605     0.32121238    -0.63070662
Li     -3.70262927     6.59300610    -2.03840206    -0.94496721    -0.21408794    -0.20221474
Li     -4.08475694     6.26811068    -5.92236161     0.26375319     0.66055036     0.28694757
Li     -7.93037574     6.51459927   -10.04613521     0.09733269     0.33888578     0.52749832
Li     -7.81267122     6.61827415    -5.86903160    -0.29438932    -0.28682842    -0.80896990
Ti     -1.95280052     1.90297646    -4.04436146    -0.61818842     0.66281764    -0.33373937
Ti     -5.77505177     6.48673511    -8.14251013    -2.13312288     1.60910439     0.41898310
Ti     -7.85754413     4.35117683    -7.84697572    -0.09077008     1.53504051     1.92436878
Ti     -7.76921359     4.37087063    -3.67660343    -0.58074700    -0.68738171    -2.15943268
Ti     -3.74202671     4.45658923    -7.79722706     0.98953703    -1.07681886    -1.45422885
Ti     -3.91311180     4.40485601    -3.76198683    -0.41987379     0.82723570    -1.54434458
Ti     -2.08827578     0.06546046    -1.89400255    -1.17920885    -1.44135531     0.37159907
Ni     -5.84809454     2.21754709    -7.80165216    -0.43388711     0.10435597    -1.22200573
Ni     -5.76674311     2.38354978    -3.99472295    -1.10901551    -0.97446522    -0.51339939
Ni     -9.86253168     6.36241858    -8.17868030     1.12443519     1.61004447     0.79469913
Ni     -9.84884369     6.81321397    -3.97796691     0.81667601    -0.28738772    -0.39419906
Ni     -2.01461288     2.04676531    -7.99119502     0.36562643     0.29071801     0.09159628
Ni     -6.05396737     6.69117132    -3.97578171     1.21890455    -0.61867523    -0.57665664
Ni     -5.92619748     8.67828661    -5.93393509    -0.29782480     0.48030492    -0.91468715
Mo     -6.04330073     0.12529591   -10.19851118    -0.48498001    -1.27066673    -0.83902583
Mo     -9.79859788     8.71631095    -6.41087933     2.15184111     0.77782925     2.00150871
O      -1.96132018     1.90915320    -2.04650699    -0.09587266     1.05823283     0.39520753
O      -1.96883163     1.78679312    -6.06433531    -0.00633411     0.97432522     1.04319045
O      -5.87474008     6.69371843    -2.05159934     0.21415700     1.21709072     0.38482364
O      -5.90908271     6.89975940    -5.92860675    -0.28947315    -0.65434445     0.48473988
O      -5.93324463     1.94846838    -9.77422785     0.25683709     0.00127476     0.99056827
O      -5.78147768     1.91045117    -5.98632454    -0.83067946     0.88599518     0.00192851
O      -9.87153775     6.82352580   -10.13625020     0.32877811     0.49434540     0.42397848
O      -9.75846870     6.82767954    -5.84654366    -0.06364316     0.36270345    -0.00331885
O      -3.85757949     2.41992562    -4.10186348     0.72630490     0.29599114     0.73601147
O      -4.02623887     2.48988678    -8.02941799    -0.19063826    -0.10900839     0.45084783
O      -7.67222790     2.37989491    -3.82213759    -0.23857000     0.63093775    -0.76858016
O      -7.87138233     2.35878888    -7.84342477    -0.33689094    -0.02171108    -1.20933685
O      -3.94881475     6.35352599    -4.01811564    -0.11297201    -0.39160257     0.04076894
O      -3.86241150     6.46173822    -7.91935604    -0.52151680    -0.20176786    -0.70753403
O      -7.95086007     6.29527874    -4.03061925     0.19226557     0.31426284     0.66557643
O      -7.86452754     6.39751218    -7.93615551     0.23765814    -1.01796405    -0.80004224
O      -3.91152110     4.33246535    -2.06072350     0.31594897     0.09703147     2.42566951
O      -3.77747299     4.40080102    -6.07289456    -0.64621494    -0.21129655     0.80773692
O      -7.66929663     4.48350407    -9.94312970    -0.60134875    -0.28596048     1.36997323
O      -7.67991028     4.37412209    -6.09705520    -0.10970908    -0.15642760    -0.13089967
O      -7.81725300     8.70760971    -9.95837877    -1.78931625     0.20944179    -0.28323404
O      -4.06904689     0.09753582    -6.02531293     0.71551843    -0.60010009     0.00063874
O     -11.55034839     8.73107415    -6.08519143    -1.73951925     0.10634145     0.27478981
O     -11.74482014     8.73214983    -9.92325436     0.77700031     0.28542930    -0.11562984
O      -9.85207642     4.56645863    -8.09531529     1.44739702    -1.47161946     0.01102488
O      -1.87980724     3.91590877    -0.08702092    -0.01032571    -0.10366228     0.36705748
O      -5.83861970     4.31541919    -3.94189124    -0.38343168    -0.70911145    -0.85088835
O      -5.82649149     4.71439069    -8.09181846     0.46484597    -1.31694285     0.34791263
O      -2.14561882     0.14263665    -3.86561019     0.84550097    -0.75558234    -1.23851691
O      -5.91094354     8.68563255    -8.03481005     0.64192749    -0.15288243     0.47121520
O      -5.95338680     0.42307632    -4.00383831     0.45279134    -0.24287147     0.99006085
O      -9.71524229     8.27857570    -8.11757079    -0.45740789    -1.09652911    -1.95248869
