# total energy = -630.68993838 eV

CRYSTAL
PRIMVEC
        0.00279571     0.02951795    -7.98606283
       -7.83802570     0.01298533    -3.99532603
       -3.92160916     8.71933433     0.00634407
PRIMCOORD
56 1
Li     -3.86398525     2.30424782    -1.85472357    -0.33546085    -0.13642799    -0.21839325
Li     -3.86007138     2.10495467    -5.94385895     0.08154853     0.01656338    -0.08597935
Li     -7.85628967     2.12793963   -10.04632487    -0.07982926     0.28869791     0.65589077
Li     -7.85092667     2.31386232    -5.88806581    -0.05362920     0.03511051     0.28896984
Li     -3.95643370     6.59001354    -1.93679180     0.48280939    -0.43207485    -0.57287209
Li     -3.86409436     6.39374888    -5.84373965    -0.78640543     0.00322703    -0.20380958
Li     -7.88287533     6.23417899   -10.01973849     0.01346985     0.44666401    -0.02460807
Li     -7.92464111     6.76730360    -5.86779107     0.96775933    -0.54599359     0.10068516
Ti     -1.87778756     2.46807584    -3.93924603    -0.75250573    -1.29411031    -0.43690395
Ti     -5.86103616     6.87657764    -8.02528924    -0.41360026    -1.02140263     0.41175615
Ti     -7.65908485     4.43102371    -7.69804915     0.35725170     0.66129060     0.62775235
Ti     -7.76696155     4.24332360    -3.71116039    -0.13752155     1.20526451     0.15319822
Ti     -3.92896539     4.40796421    -7.67239421     0.73810135    -0.04018232    -0.61627304
Ti     -3.93920523     4.44690043    -3.73480823    -1.64285131     0.59855952     1.13844818
Ti     -6.07303728     8.69693783    -2.22958093    -0.78832297     1.98055268     0.73394421
Ni     -5.83874527     2.23160757    -7.78681376    -0.97064709    -0.25367994    -1.91285053
Ni     -5.82052648     2.25276165    -4.06852576    -0.06204890     0.38683417     0.11999943
Ni     -9.81818400     6.30704925    -7.99404646     0.71901419     0.46413741    -0.12363671
Ni     -9.82948404     6.44122234    -4.00697131     0.54606645     0.18016048    -0.77352331
Ni     -1.98403607     2.18936762    -7.99091454     0.61970331     0.18041433     0.52314168
Ni     -5.83628474     6.82648284    -4.13340187    -0.84893237    -0.83463567     0.69221812
Ni     -2.00993431     0.03275055    -6.02793057    -0.18329649     0.38075038     0.46540818
Mo    -10.02486468     8.66943398   -10.22676184     0.95250869     0.77803351    -1.42520268
Mo     -9.82914411     8.71739828    -6.35358870     1.16865676    -0.49421668    -0.79014575
O      -1.89897148     1.96733125    -1.95182601    -0.17394484     0.06404721    -0.40662451
O      -1.92104682     1.97119608    -5.95431529    -0.23048767    -1.22659819    -0.45989624
O      -5.85019199     6.87998415    -2.12333864    -0.09678006    -1.43974223     0.23569654
O      -5.97640295     6.79208159    -6.04667820     0.60341307     1.17537299     0.37454484
O      -6.00868457     1.73664635    -9.65877221     0.74171106    -0.12436025     0.49291334
O      -5.90765433     1.89826182    -6.03102933     0.26444689     0.61845104     1.16136908
O      -9.93409805     6.74613872   -10.12931270     1.09858661    -0.13519083    -0.07772709
O      -9.67215249     6.78676065    -5.93466661    -1.31158572     0.09581259     0.75321779
O      -3.82272609     2.57700349    -4.06292004    -0.10372122    -1.93084876     0.64161475
O      -4.00375628     2.45696067    -7.93101567     0.33945666    -0.05382721     0.19270733
O      -7.73175249     2.29285991    -3.90320257    -0.36313247     0.38579866    -0.88478335
O      -7.84447088     2.43170805    -7.88702530     1.20550344     0.31165610     0.06217200
O      -3.89858914     6.36363750    -3.92101599    -0.40349094     0.24835552    -0.67386920
O      -3.95445410     6.42154719    -8.08204753     0.31173343    -0.23634388     1.05642322
O      -7.91917542     6.26529312    -3.96525264     0.27864947    -0.21605455     0.24373356
O      -7.82920685     6.31337655    -8.13785990     0.20891759     0.43673862     0.72986895
O      -3.83970869     4.43512134    -1.96919942    -0.04463609    -0.38771445    -0.04918979
O      -3.82447622     4.39670107    -5.91128629    -0.09521481     0.62237761    -0.82092303
O      -7.87113907     4.31833643    -9.90134462     0.13622614    -0.26788962    -0.77247096
O      -7.95332342     4.40468737    -5.93839210     0.74767532    -0.37966607    -0.92713750
O      -3.92810719     0.09915694    -2.15208047    -1.56837733    -0.42508509     0.07666679
O      -3.98305972     0.02932577    -6.11880953    -0.46135707     0.21368104     0.26947007
O     -11.55086172     8.58017765    -6.01283876    -0.67568468     0.69179459    -0.13183324
O      -3.95729848     8.62538616    -6.16245827    -0.25737445     0.06196607     0.51275515
O      -9.75692290     4.42979763    -7.96183701     0.07507395    -0.80039717    -0.20364908
O      -1.87162245     4.08536508    -7.99326377    -1.37287241    -0.06087940     0.13322752
O      -5.84396320     4.08504380    -4.00179005    -0.14474336     0.36572604    -0.08581191
O      -5.81972456     4.62310374    -7.98238347     0.23765478    -0.19507824     0.24131609
O      -1.85859120     0.42052294    -3.97182710     0.09685630    -0.34372074    -1.32532994
O      -5.93575366     8.70110696    -8.04791482     0.21590623     0.01047670    -0.51374983
O      -5.98063491     0.38354230    -4.05723475     0.96174776    -0.41088809     0.98808830
O      -9.86123570     8.12733074    -8.15660853     0.39456581     0.56109041     0.27380196
