# total energy = -630.92145246 eV

CRYSTAL
PRIMVEC
        0.00279571     0.02951795    -7.98606283
       -7.83802570     0.01298533    -3.99532603
       -3.92160916     8.71933433     0.00634407
PRIMCOORD
56 1
Li     -4.09734132     2.39167958    -2.01391836     0.56087336    -0.47709058     0.89123471
Li     -3.81462180     2.15316951    -6.01551552    -0.66915363     0.30158005     0.43250449
Li     -7.76043584     2.39244051   -10.08682060    -0.33863928     0.07776252     0.67957934
Li     -7.85082401     2.21294677    -5.78992874     0.32689473    -0.13559013    -0.65022469
Li     -3.91303850     6.50862096    -2.01402169     0.00204648     0.07588823    -0.13964221
Li     -4.05500866     6.34645469    -5.92578774     0.31257826     0.22774500     0.06729091
Li     -7.96084766     6.50002061    -9.81972870     0.01644537    -0.32360743    -0.64910512
Li     -7.89959706     6.51085504    -5.86063926    -0.08821265     0.05816961    -0.33325170
Ti     -1.86975085     2.16314187    -3.90625842     0.17090901    -0.23130950    -0.41344832
Ti     -5.84047391     6.65825020    -8.08377524    -0.40563794    -0.61924154     1.15041999
Ti     -7.70380990     4.38330061    -7.66581871     0.26918897     1.20313786    -1.05119871
Ti     -7.85805703     4.44267523    -3.77051089     0.53708865    -0.92469980     0.84505188
Ti     -3.83686175     4.38854607    -7.76750311    -0.06949096    -0.41168301    -0.49099826
Ti     -3.90686828     4.35978786    -3.68226494    -0.49253625     0.07774566    -0.51909417
Ti     -6.07757672     8.60116534    -2.09828119    -0.64112133     1.54343921    -0.15030007
Ni     -5.75699343     2.13209197    -7.82294807    -0.73952656     1.22136367    -1.48567804
Ni     -5.85922535     2.34530236    -3.93730750    -0.67104091    -0.55780894    -1.12757591
Ni     -9.85481382     6.39192427    -7.96866036     0.55634266    -1.08914221    -0.05949210
Ni     -9.83791613     6.52906190    -4.04270618     0.33894197    -0.38717482    -0.73669405
Ni     -1.98662488     2.19989001    -7.93051605     0.53516184    -0.07929210    -0.33089435
Ni     -5.89628506     6.59974381    -4.10899511    -0.34010141    -0.34534891     0.73161947
Ni     -1.92681195     0.04928571    -5.99070962    -0.59734631    -0.90128895    -0.20619361
Mo     -9.95208300     8.74630789   -10.27667680    -0.23207426     0.44370792     0.54040327
Mo     -5.86959880     0.13953632    -6.45546808    -2.99297513    -0.46733403     1.08577526
O      -1.85343508     1.82894116    -2.00654494    -0.59482590     0.37164105     0.07179279
O      -2.00355493     1.91593171    -5.94765131     1.03520562    -0.53186058    -0.65272867
O      -5.94202561     6.69025623    -2.00234591     0.28947588     0.42879490    -1.10086634
O      -5.96432292     6.89992167    -5.96798165     0.68546504     0.41176193     0.21147526
O      -5.84621291     1.88181115    -9.63899708    -0.75529867    -0.70971625    -1.02176853
O      -5.86623744     2.07393020    -6.04183794     0.20942112    -0.67705553     1.13288362
O      -9.86841636     6.85526412   -10.12631711     0.25754533    -0.71215374    -0.21704807
O      -9.88668117     6.70744615    -6.00474530     0.74728417     0.94113120     0.37096318
O      -3.76410139     2.40758030    -3.86514214    -0.96552058     0.01704695    -0.61198229
O      -3.91244862     2.36884003    -8.02390351     0.49260975     0.59628770     0.57960838
O      -7.89159267     2.42937099    -4.02630931     0.29575704     0.18444880     1.04055784
O      -7.73555212     2.51381708    -7.89425489    -0.48811788    -1.58793833    -0.24872175
O      -3.96997984     6.24623753    -3.97744314    -0.07016207     0.87862385    -0.35001128
O      -3.94369099     6.40211756    -8.09562621     0.81664599    -0.24381856     1.04621949
O      -7.84913431     6.34663417    -3.89933345    -0.15716070     1.11646273    -0.55976555
O      -7.70917778     6.36367487    -7.94801169    -1.67350609    -0.19087226    -0.09061399
O      -4.03859222     4.35961214    -1.93810536     0.13778839    -0.16548615    -0.09912624
O      -3.95322741     4.38052731    -6.01710237     0.09298713    -0.08650876     0.03169302
O      -7.99997048     4.34937086    -9.98156564     0.23708693     0.23805165    -0.16629227
O      -7.88505369     4.46292660    -5.94815952     0.13733858    -0.02385672     0.67599081
O      -4.01471133     0.07128464    -2.07947239     0.72027975    -0.88444618    -0.29102469
O      -4.18976287     0.07214090    -5.97904371     1.65820283    -0.38700811     0.26961774
O      -7.71932707     0.07846295    -6.06449377     1.10980762    -0.39758352    -0.35278388
O     -11.72179710     8.70454711    -9.99393896     0.55758779     0.39004601    -0.50144703
O      -9.78984327     4.39333031    -7.96630770    -0.09823052    -0.12414596     0.14313309
O      -9.76252072     4.44309329    -4.13945874    -1.48278566    -0.12201062     0.33469110
O      -5.92474563     4.22387542    -4.00737759     0.93032696    -0.29366129     0.07279207
O      -5.84895637     4.53412379    -8.04712640     0.44079334     0.57999205     0.39675208
O      -1.85662525     0.19494885    -4.07091758    -0.31714597     0.85497629     0.93257370
O      -5.92010115     8.53810379    -8.09553058     0.20258481     0.13675512     0.23949388
O      -5.98155366     0.46425300    -4.03770781     0.32485599    -0.26927221     0.18148372
O      -9.79532000     8.17414759    -8.17716460     0.04519843     0.71113260     0.47152946
