# total energy = -630.47191763 eV

CRYSTAL
PRIMVEC
        0.00279571     0.02951795    -7.98606283
       -7.83802570     0.01298533    -3.99532603
       -3.92160916     8.71933433     0.00634407
PRIMCOORD
56 1
Li     -3.99043353     2.31250955    -1.93858580     0.13096805    -0.13345012     0.29566270
Li     -3.78815814     1.98466942    -5.97247751    -2.18327013     0.08153607     0.07717832
Li     -7.88620473     2.52564700   -10.09874824     0.13683506    -1.34201121     0.90297906
Li     -7.91766741     2.38939741    -6.08599598     0.48556981     0.17749531     0.55797349
Li     -3.94785325     6.40771448    -1.90189509     0.01922187    -0.16546603    -0.43157615
Li     -3.89015243     6.63388208    -5.88078777     0.13019444    -0.39627139     0.06386293
Li     -7.90406299     6.31977183   -10.02857213     0.10464217     0.65529506     0.22415258
Li     -7.89215702     6.55677859    -5.80070743     0.68949843    -0.04642022    -1.25908710
Ti     -2.00025340     2.27198282    -3.96225876     0.75384958     0.83228304    -0.75218114
Ti     -5.84427652     6.77697232    -7.92709821     0.18125706     0.08260130    -0.42387527
Ti     -7.75636681     4.43473927    -7.90090294     0.32956621    -1.11695223     3.12209903
Ti     -7.82874964     4.30280755    -3.76582285     0.33482226     0.50770452    -1.69467694
Ti     -3.87944500     4.37560707    -7.64185239    -0.39682624    -0.01563498     0.42667880
Ti     -4.01548243     4.32322623    -3.70360122     0.56719806     1.16056125    -0.61792010
Ti     -2.02365366     0.03928355    -2.15209090    -1.68038018    -0.84599646     1.07782616
Ni     -5.90205541     2.26174353    -8.04987703     0.60654108     2.51639979     0.48137651
Ni     -5.98625108     2.23283746    -4.12538885     1.30144984     0.31538269     1.33826559
Ni     -9.77634373     6.43167906    -7.86256221    -0.91601807    -0.14704547    -0.41576694
Ni     -9.75875144     6.37667531    -4.14769445    -0.79702399    -0.14790320     0.86081832
Ni     -2.03396727     2.26592150    -7.84701155     0.80494343    -0.37670826    -0.78735087
Ni     -5.82312189     6.43960233    -3.96795354    -0.52658474     0.34016927    -0.16004469
Ni     -5.84643109     8.66608426    -5.89823664    -0.82674589     0.13427076    -0.75616783
Mo     -5.95168366     0.11831108   -10.22008025    -0.00652476    -0.68142384     0.36858585
Mo     -9.85676808     8.69160623    -6.35585584     2.33852714     1.32142712     0.30591805
O      -1.97695782     1.98322052    -2.07475702     0.30358465    -0.04801570     0.56293774
O      -2.10953889     1.75619434    -5.95855386     2.30387825     0.56519239     0.16414605
O      -5.85892855     6.81406894    -1.94672058    -0.32179844    -0.30469097    -0.77094612
O      -5.92766586     6.72732429    -6.02170866     0.73288278     1.00075728     1.25942484
O      -5.92160272     2.09575631   -10.02611041     0.04427359     0.02684657    -0.01620118
O      -5.83803589     2.01456827    -5.92521248    -0.59239307    -0.93346626    -1.66315479
O      -9.78476551     6.98973859   -10.04011594     0.42029707    -0.90469483     0.73234622
O      -9.74212335     6.83993313    -6.02212932    -0.82443047    -1.02040180     0.28407821
O      -3.93606094     2.39630443    -3.91446627     0.25198334    -0.37374533    -0.71303027
O      -3.90215790     2.46524641    -7.90962718    -0.44366907    -0.45977447    -0.23092204
O      -7.88018488     2.36413672    -4.06212852    -0.85946553     0.45714862     0.38202255
O      -7.84472632     2.44778218    -8.05438793    -0.39759148    -0.81501089    -0.12238286
O      -3.87843388     6.29486217    -3.89848804     0.42985944     0.29113318    -0.01763465
O      -3.90439350     6.33653653    -8.01038298    -0.20450578     0.63433370     0.40159212
O      -7.91677903     6.21810205    -4.08638675     0.98047023     0.20775509     1.47935571
O      -7.87194782     6.29637018    -7.93575726     0.77424450     1.91799475    -0.86386252
O      -3.95090827     4.36199123    -1.95416657     0.34966565     0.07710972    -0.11640126
O      -3.76990630     4.51418199    -5.89508772    -0.12414988    -0.11289333    -0.49384230
O      -7.80046256     4.35610996    -9.96476629    -0.23856836     0.36661108    -0.85166480
O      -7.90902988     4.34509939    -6.09900519     0.25535283    -0.11469134    -0.58741448
O      -3.93755262     0.09019338    -2.12243463    -0.18672637    -0.00283477     0.40838533
O      -7.99293776     8.69750014    -5.88078321    -0.75804963    -0.10530358    -0.68346067
O     -11.61601487     8.70531802    -6.09010325    -0.51626248     0.09910386     0.22391901
O      -7.74471376     0.06767882   -10.03040837    -0.32039087    -0.26039814     0.41742129
O      -1.91626952     4.24901370    -4.07815791    -1.09856815    -1.09924943     0.04508056
O      -9.77291802     4.42608636    -4.06629850     0.05508903    -0.38203567     0.16617192
O      -5.86420757     4.25443337    -4.12971653    -1.33404132    -0.05915130     0.20142980
O      -5.79535280     4.39754922    -7.99208000    -0.61350108    -0.46129180    -0.02598147
O      -1.89721590     0.19115664    -3.93307353     0.26959846     0.21181524    -1.48585559
O      -5.77612449     8.59714838    -8.02647925    -0.41208333    -0.35092383     0.44504176
O      -5.98559175     0.31956420    -3.97546410     0.26432958     0.16250083    -2.05677275
O      -5.83982109     0.48763896    -8.15011206     0.07792492    -0.45475842     0.69054427
