# total energy = -630.87450539 eV

CRYSTAL
PRIMVEC
        0.00285542     0.02004370    -7.95977623
       -7.82940539     0.00763210    -3.98158109
       -3.91729101     8.74642787     0.01461334
PRIMCOORD
56 1
Li     -3.98653301     2.14492443    -2.02221089     0.20499012     0.09501530     0.54267711
Li     -4.02442693     2.42297733    -6.11625938     0.33199879    -0.46954701     1.50170169
Li     -7.75480187     2.30287800    -9.94368522    -0.35199886    -0.05327480     0.32798628
Li     -7.73335573     2.17489923    -6.03125302    -0.25539783     0.03366990     0.46147185
Li     -3.91062686     6.77049754    -2.03818783     0.07813155    -0.39840101     0.63967849
Li     -4.09883803     6.45066317    -5.80046107     0.61004778    -0.22115091    -0.23611309
Li     -8.01176635     6.38967335   -10.01047407     0.54019031     0.15483194     0.49493965
Li     -7.69207568     6.64430344    -5.81466306    -0.54336929    -0.20065387    -0.13503581
Ti     -2.01231857     2.17509939    -4.00909054     0.83980247     0.19662886    -0.78788440
Ti     -5.86567558     6.66906994    -8.05490918     0.47045746    -0.87333170     1.31327217
Ti     -7.93762866     4.51592539    -7.65447909     1.52126577    -0.70128422    -0.34560563
Ti     -7.75880165     4.29996321    -3.68561573    -0.81123900     0.63727614    -0.96783158
Ti     -3.75020312     4.40165733    -7.69012219    -0.31597586     1.11560978    -0.44072735
Ti     -3.96096690     4.33483365    -3.70048282    -0.47195320     0.88474738     0.77162450
Ti     -6.01706394     8.71189469    -2.04326285    -1.57998311     0.58709669    -0.18932727
Ni     -5.83711713     2.46296850    -7.96768144    -0.18184702     0.51506344    -0.71738393
Ni     -5.87498597     2.21455147    -4.06991438    -0.17635870    -0.36802908    -0.12376822
Ni     -9.84976240     6.60948862    -7.88490351     0.33985575     0.21328756     0.40337929
Ni     -9.68267258     6.56422367    -4.07253772    -1.11408964    -0.07821141     0.05422385
Ni     -1.95934791     2.12789231    -7.98950588     0.87353246    -0.36750173     0.64506872
Ni     -5.86314288     6.56504058    -3.91537028    -0.34736404    -0.05669590    -0.60956263
Ni     -5.85347646     8.70554326    -5.97260824    -0.34734616     0.01893528    -0.24656303
Mo     -9.94739780     8.70488394   -10.12356957    -0.53751630     1.30991729    -0.79655462
Mo     -9.73795773     8.70260374    -6.36837181     0.40022071     0.11116762    -0.11408189
O      -1.90322937     1.89738033    -1.92767571    -0.37606405     0.19827390    -0.61299364
O      -1.89606927     1.75927166    -6.13908193    -0.27718732     1.15328481     1.25390723
O      -5.91114450     6.69536166    -2.00192657     0.22355675     0.89215286    -0.49858647
O      -5.89520525     6.82909825    -5.93262052     0.62295571     0.74367028     0.82648695
O      -5.81692458     1.90950414   -10.13283715    -0.68371676     0.25617493     0.20145005
O      -5.83573300     1.98025498    -5.96260263    -0.41945264     0.13112620     0.41840347
O      -9.80313825     6.92052838    -9.73771299    -0.01412789    -1.38867104     0.57543713
O      -9.80087952     6.77629832    -6.04419484     0.28656826     0.10716437     0.41420981
O      -3.93939829     2.33099712    -4.03970924     0.45484080     0.31771062     0.20919152
O      -3.78085398     2.51842397    -7.85174639    -1.04902554    -0.71291459    -1.43068457
O      -7.87536996     2.38586346    -3.89897613     0.35639317    -0.19057101    -0.92731207
O      -7.80082387     2.43850410    -7.93853117    -0.15954571     0.96767099    -0.08791569
O      -3.91800316     6.37870899    -3.84370310    -0.01561069    -0.84850578    -0.59320029
O      -3.90263763     6.30853972    -7.98011171    -0.08042107     1.24822069    -0.13834648
O      -7.78108889     6.34224382    -3.94624720     0.27764796    -0.30506342     0.27791293
O      -7.76617330     6.55662357    -7.77077049    -1.47319716    -1.33209742    -1.30208728
O      -4.21263588     4.22869831    -1.94328616     1.10262320    -0.02562223    -1.11689360
O      -3.99553611     4.42594584    -5.91636952     0.18724934    -0.05080257    -0.22516630
O      -8.04756548     4.32076529    -9.91215110     0.39447152     0.69757754     0.46684126
O      -7.77690479     4.46379219    -5.93497391    -0.58843008    -0.34797441    -0.06300126
O      -7.89921511     8.68987627    -2.02844746     0.90898332     0.13591413    -0.09787110
O      -4.08902246     0.02078604    -5.88951738     0.53020279    -0.41641527    -0.34093264
O     -11.52931016     8.74930998    -6.05750650    -0.95197615    -0.08983069     0.05172028
O      -3.91820221     8.68941408    -5.96144619     1.11759134     0.09388271     0.22422855
O      -2.02572333     4.10434945    -3.96446223     0.02322045     0.68948945     0.40501901
O      -9.73420182     4.69466330    -4.07781249     0.12124014    -0.03084130     0.11748355
O      -5.90169632     4.18455401    -4.04357892     0.24775571    -0.05725085     0.14674945
O      -5.91979840     4.54484746    -8.04889821    -0.46397361    -0.69384073     0.69716687
O      -1.94325718     0.35285232    -3.96407930     0.14806929    -1.83296075     0.08520426
O      -5.81948986     8.57797842    -8.03957896     0.06284848    -1.21698178    -0.29461612
O      -9.88875449     8.59681909    -3.97891695     0.34523055    -0.01526170    -0.00546683
O      -5.76295677     0.62033541    -8.11175353    -0.11102687    -0.02194363    -0.12127217
