# total energy = -630.38518470 eV

CRYSTAL
PRIMVEC
        0.00279571     0.02951795    -7.98606283
       -7.83802570     0.01298533    -3.99532603
       -3.92160916     8.71933433     0.00634407
PRIMCOORD
56 1
Li     -3.66772297     2.43951597    -2.09000018    -0.84680371    -0.21391098     0.75110959
Li     -3.96675017     2.25038001    -5.95622818    -0.02139871    -0.23656765    -0.57745800
Li     -7.81667979     2.31727883   -10.03591560     0.24694470     0.37375565     0.15675038
Li     -7.74407106     2.27735034    -6.08278139    -0.18474211     0.04359321     0.38134285
Li     -4.01522404     6.55125624    -1.94959245     0.42362514    -0.11883805    -0.00549414
Li     -3.88418496     6.36623852    -5.93069531     0.01894974     0.02119101     0.35586129
Li     -7.79304947     6.69570056    -9.72777666    -1.04116329    -0.25898034    -1.18940180
Li     -7.86900173     6.67939498    -5.76354310     0.37812866    -0.36154857    -0.34112989
Ti     -1.97571654     2.14694430    -4.12783592     0.59768984     0.18044420     0.33989020
Ti     -5.93258941     6.54279267    -7.91554979     2.75758231     0.38674500     0.10123681
Ti     -7.97516351     4.48277887    -7.79547535     0.17037732    -2.82054738     1.07672677
Ti     -7.95402302     4.51472805    -3.71047633     0.18101277    -1.14552384    -1.07016665
Ti     -3.90619948     4.34055180    -7.68401739    -0.03727273     0.42647672    -2.16486776
Ti     -4.11282467     4.37590233    -3.79580884     1.02001332    -0.85084230     0.91728817
Ti     -6.13649272     8.70709307    -2.04763615     0.61893875     0.83607569    -0.18996845
Ni     -5.75475804     2.30047286    -8.07059397    -0.66780057    -0.16100835    -0.33077922
Ni     -5.86819598     2.11257093    -4.04350608     0.30403834     0.44415001     0.81024659
Ni     -9.78654374     6.52022931    -7.82262056     0.20997253     0.13741524    -0.47775893
Ni     -9.77911279     6.49355150    -3.97350756    -0.63373498     0.03337489     0.31206994
Ni     -1.88932473     2.16711812    -7.98828540     0.71876071     0.00532594    -0.34944361
Ni     -5.94100776     6.59267626    -3.95033399     0.87116680     0.10720686    -0.15260803
Ni     -5.78916031     8.70534088    -6.09989476    -0.66855481    -0.49616324     0.53232437
Mo     -5.98752601     0.12737095   -10.26993464     1.34776062    -0.15263432     1.93436742
Mo     -9.77849547     8.62296676    -6.27367098    -2.84932500     1.31743547    -2.17151132
O      -1.87118991     1.94555837    -2.05815228    -0.02512745    -0.63357639     0.05184065
O      -1.95064604     1.84899102    -6.10524112     0.09636629    -0.38068659    -0.10116496
O      -5.93797245     6.78297107    -2.00755182     0.15944311     0.02073579    -0.13128707
O      -5.88076141     6.77104779    -5.99692765     0.51574652     1.14042233     0.39091733
O      -5.69452408     2.01370360   -10.16258400    -0.18634738     0.72860527     0.53773291
O      -5.88750088     1.85312661    -5.81868368     0.08151380    -0.18785103    -1.24306474
O      -9.77826789     6.95975696    -9.71868019    -0.48058255     0.05600355    -0.26059087
O      -9.82582172     6.73164256    -5.89808427     0.25366820    -0.16128163    -0.58184565
O      -3.92144663     2.24924570    -4.11566141     0.29857053     0.69739873     0.89512933
O      -3.76055607     2.43174415    -8.01618687    -0.76339833     0.20374637     0.24007860
O      -7.70358352     2.54943723    -3.95069269    -1.00707412    -0.28459426    -0.19873885
O      -7.77085940     2.48037027    -8.10278682    -0.06202756     0.35775822     0.38703170
O      -3.73913102     6.20162719    -3.94319479    -0.84799745     1.71224697    -0.24027857
O      -3.94929525     6.35083533    -7.94688076     0.03716723    -0.32766022     0.29632357
O      -7.84294290     6.44616187    -3.87673048    -0.54122889     0.35466884    -0.50934456
O      -7.76396691     6.37915492    -7.92192311    -2.15327992     0.73284526     0.38224253
O      -3.73127279     4.32416572    -2.05351890    -0.78253790    -0.15591770    -0.76887358
O      -3.98841618     4.35134205    -5.95137090     0.30475865    -0.19783700     0.78744356
O      -7.97796565     4.58148775    -9.96702004     0.30125057    -0.27366884     1.17361770
O      -7.80868002     4.43642494    -6.01449101    -0.28864608     0.11727111    -1.30466858
O      -4.06597138     0.09473659    -9.90016202     2.53283491    -0.30732463    -0.50826599
O      -8.01179219     8.64354398    -6.04804657     0.95378509    -0.01215917     0.30641563
O     -11.69052005     8.66138918    -6.10424597     1.50936740    -0.18949958     0.37264805
O      -7.66243662     0.38624069    -9.98443713    -2.26942520    -0.99199015    -0.20840653
O      -2.02808721     4.08020731    -4.17275997     0.65072703    -0.60828739     0.45865764
O      -9.84179496     4.64837791    -4.12657162     0.42973511    -0.28352000     0.82605033
O      -5.94246078     4.68289982    -3.97994008    -0.70399332     0.28106876     0.10095004
O      -5.82484527     4.41414095    -8.10824294    -0.37165432    -0.13776077     0.31068147
O      -1.89016053     0.08684778    -4.01641194    -0.54217442     0.09790149    -0.01815442
O      -5.88873677     8.43169510    -8.07337684     0.18366359     0.13237114     0.52254707
O      -9.78816029     8.41052000    -3.97605208    -0.03811892    -0.87646691    -2.25216767
O      -5.82371118     0.38276799    -8.13526294    -0.06010274     1.26280769     1.88769169
