# total energy = -630.41130229 eV

CRYSTAL
PRIMVEC
        0.00279571     0.02951795    -7.98606283
       -7.83802570     0.01298533    -3.99532603
       -3.92160916     8.71933433     0.00634407
PRIMCOORD
56 1
Li     -4.03162517     2.34721042    -1.97757992     0.10710615    -0.02512863     0.49251961
Li     -3.96144792     1.95207914    -5.88302827     0.43817063     0.77341630    -0.63345922
Li     -7.80041269     2.13302838    -9.87751485     0.11283066     0.20877230    -0.70830090
Li     -7.81073609     2.13743754    -5.92473212    -0.25377951     0.35753106    -0.02315498
Li     -3.83977608     6.33773263    -2.07525675    -0.38699765     0.38331310     0.69483557
Li     -4.19228330     6.30480625    -5.80673303     0.53123322     0.01015339    -0.83100572
Li     -7.71761369     6.78064349   -10.04438874    -0.88710108    -0.56959077     0.33774977
Li     -7.82971848     6.59580224    -5.82105499    -0.48636485    -0.28972092    -0.30067285
Ti     -1.92323417     2.33373319    -4.06468714     1.02450658    -0.06357042    -0.17259373
Ti     -5.90930984     6.67591102    -7.97991768     1.48744446     1.42843322    -0.47884847
Ti     -7.58326865     4.43991272    -7.69803962    -2.06292777    -1.43819159     0.11931984
Ti     -7.79686022     4.36681969    -3.69009145     0.73390162     0.15791586    -2.41672522
Ti     -3.72337850     4.37613791    -7.77103694    -0.91135051    -0.48283456     1.81646937
Ti     -3.87885755     4.38582641    -3.75558249    -1.47658175     1.59942268     0.13243271
Ti     -2.23144389     0.07877155    -2.09992128     0.44074065     0.68233880     0.16561004
Ni     -5.88266785     1.99123695    -7.90639453     0.16597985     0.87215707     0.18935335
Ni     -5.86278462     2.36540482    -4.18365237     0.32266149     0.74812297     1.15127914
Ni     -9.88524967     6.34093232    -8.03052249     0.92663307     0.66289984    -0.34511673
Ni     -9.75781877     6.54411957    -3.98398224    -0.91312687     0.12367919     1.19145147
Ni     -1.90898114     2.08013769    -7.99007418    -0.07665387     0.68914581    -0.12008685
Ni     -5.96562634     6.85423449    -4.04336944     0.37602651    -1.26715885     0.68442818
Ni     -2.11068039     0.05287489    -5.90493518     0.98725238     1.77270225    -1.70474621
Mo     -9.93132202     8.68324302   -10.24094592    -2.52671380    -0.05567279    -0.32615363
Mo     -9.85349523     8.68733062    -6.29792563     0.37880457    -0.31165259    -0.42933237
O      -1.96870706     1.99724428    -1.94168848    -0.00369246    -0.26692846    -0.37703287
O      -1.91040963     1.96390795    -6.04114308    -0.77407801    -0.89770428     0.51681659
O      -5.76451893     6.88346970    -2.06915488    -0.97008216     0.19483247    -0.02093319
O      -6.03118946     6.97586354    -6.02414197     0.20090378    -0.32906016     0.82216637
O      -5.88079408     1.79334144    -9.72436329    -0.42562825     0.26797383     0.09048739
O      -5.81852782     1.94176049    -6.03844578    -0.66371511    -0.19950654    -0.37182599
O      -9.83299832     6.76465404   -10.07844614     0.39313563     0.12599701    -0.02155646
O      -9.72324083     6.77225600    -5.79457548    -0.80111847     0.57808889    -0.54844428
O      -3.84101664     2.51133783    -3.94652626    -0.87618108    -1.14288440    -0.39529035
O      -4.08997895     2.40740594    -7.98129021     0.60171528     0.18354904     0.08453144
O      -7.70542586     2.47618746    -4.04821579    -0.39676152    -1.57316333    -0.30734560
O      -7.83732174     2.41421391    -7.99923916     0.41012847     0.12385047     0.85429721
O      -4.02643519     6.41560271    -4.00792351     0.62280357    -0.99921919     0.42804238
O      -3.90049859     6.39632589    -7.84837155     0.13416425    -0.24008978    -0.78021228
O      -7.89846374     6.31044396    -3.90351242     0.73030543     0.97779366    -0.26119792
O      -7.86327286     6.32932979    -8.02221966     0.25629739     0.16982530    -0.16397178
O      -3.94008408     4.39450414    -1.94184144    -0.12227172     0.14590313    -0.80139617
O      -3.91648125     4.33790840    -5.94665779    -0.01457404     0.36798570    -1.32383786
O      -7.79447883     4.13139419   -10.01365765     0.06172865     0.46428199     3.35150620
O      -7.80041098     4.31280505    -5.96168117     0.13068553     0.39332086    -0.97540507
O      -4.07542144     0.07827629   -10.01121771     1.31574407    -0.95587112     0.02466964
O      -4.07999083     0.07571422    -6.22599610     1.50523349    -0.09683053     1.15600183
O      -7.68059988     0.11639107    -6.03550020    -0.07480141    -0.16887380    -0.23075273
O      -3.94195362     8.72606884    -6.09245690     1.24963360    -0.09225575     0.22397733
O      -9.77143254     4.35321476    -8.01874313     0.10081038     0.29181079     0.06446785
O      -1.91025114     4.14968425    -8.00906605     0.29095358    -0.63690211    -0.00286514
O      -5.84981511     4.25707089    -4.09030341     0.13477600    -0.49652425     0.20743233
O      -5.80567405     4.80552479    -7.95723536     0.63246970    -0.18821504    -0.15988952
O      -2.01466996     0.43478325    -3.98888309    -0.05742189    -0.72254349     0.33091781
O      -5.76622889     8.73269426    -8.23735394    -0.48708694    -0.29223785     1.41220069
O      -5.78635448     0.47388475    -3.96305528    -0.29159593    -0.03356445    -1.07790953
O      -9.76452047     8.20180188    -8.08090341    -0.87599272    -0.48536869    -0.22639168
