# total energy = -630.86391245 eV

CRYSTAL
PRIMVEC
        0.00285542     0.02004370    -7.95977623
       -7.82940539     0.00763210    -3.98158109
       -3.91729101     8.74642787     0.01461334
PRIMCOORD
56 1
Li     -4.04911447     2.01101139    -2.03180075     0.25030478     0.17108625     0.42101830
Li     -3.97600139     2.17169414    -6.07990088     0.34638556    -0.22437997     0.68886075
Li     -7.86455691     2.11465712    -9.94882492     0.26738758     0.11109589    -0.18273695
Li     -7.93311399     2.26755011    -5.91953929     0.70350730    -0.20007564     0.10096268
Li     -3.96739427     6.73204333    -1.84997510     0.54419427    -0.80780191    -0.50847853
Li     -3.92324141     6.51473682    -5.71386501    -0.08350989    -0.01109103    -0.76823644
Li     -7.73262106     6.56613791    -9.99130792    -0.53083497    -0.17443757     0.28049060
Li     -7.78185447     6.50991293    -5.77647555    -0.19351277    -0.01522675    -0.45296663
Ti     -1.96425252     2.46718765    -4.02582377    -0.97803630    -1.16406662    -0.34557033
Ti     -5.91480504     6.78594123    -7.96598958     1.18225749    -0.28562799     0.95854689
Ti     -7.75327231     4.40491810    -7.68206333     0.26335041     0.26155361     0.82945760
Ti     -7.92025674     4.35939608    -3.70884165    -0.07257013    -0.65958867     1.38807385
Ti     -3.86948725     4.34703272    -7.55462665     0.08517582     0.92362820    -0.62884778
Ti     -4.14066005     4.45061971    -3.62314870     0.85872225     1.37719166     1.42607383
Ti     -5.77752000     8.70499741    -2.25235710     0.00694603    -0.29451001    -1.25661751
Ni     -5.87814887     2.40313510    -7.97839349    -0.30965285    -0.58451170    -0.60493933
Ni     -5.88153493     2.29865491    -3.99799794    -1.02506629    -1.05893381    -0.34732015
Ni     -9.72192975     6.50651049    -7.99606369    -1.59990156    -0.49360031     0.74679236
Ni     -9.81899948     6.35010177    -4.04648136     0.10142456    -0.05647726     0.53481197
Ni     -1.98764447     2.11169280    -8.06695003    -0.18047972     0.84893484     0.61121497
Ni     -5.94984616     6.64454301    -4.02779313     0.89829371    -0.09734162     0.37894785
Ni     -1.94007451     0.04570791    -6.01542625    -0.03811768    -1.57824400     0.84239175
Mo     -9.80135024     8.61889075   -10.15840431     0.41357167     1.74334309    -0.75184196
Mo     -9.72479747     8.67442213    -6.28313425    -0.94344824     0.85524067     0.09256058
O      -2.03240650     1.76769682    -2.01272248     0.12265590     2.61319053    -0.13686693
O      -1.95033693     1.83200871    -5.97675430    -0.36077170     1.15851610    -0.28752499
O      -5.82276211     6.78765135    -2.00829720    -1.00882778    -0.30567765     0.19725850
O      -5.91171960     6.90620572    -5.98627218     0.12296573     0.08649263     0.58881817
O      -5.95920307     2.06597195   -10.06431943     0.45090264    -0.29887957     0.61663196
O      -5.83784458     1.87887437    -5.96848412    -0.44499478     1.24764264     0.20707406
O      -9.72519425     6.77252621   -10.01487716    -0.12252314    -0.59862573     0.52831239
O      -9.86413574     6.82304588    -6.01076250     0.51172172    -0.67662792     0.42417109
O      -3.91416321     2.54386578    -3.94676551     0.37652956    -1.01251998    -0.15754213
O      -3.99418614     2.45607117    -8.02109370     0.62772534    -0.18894627     0.54715201
O      -7.90998434     2.37147666    -4.03138918     0.43997770     0.02892842     0.45027537
O      -7.87091094     2.42489918    -7.89380733    -0.06631853     0.41904644    -0.40010963
O      -3.95126160     6.41883825    -3.88177684     0.23823431    -0.14091251    -0.37607009
O      -3.89267756     6.34781017    -7.83931741    -0.86850025     0.20176633    -0.25283103
O      -7.88029159     6.32142259    -3.90244452    -0.04030082    -0.18833965    -0.77464831
O      -7.81605452     6.38863948    -7.91515639     0.55700201    -0.17602686    -0.22584358
O      -3.95499832     4.55391683    -1.86199100    -0.03510801    -0.25074308    -1.15786685
O      -3.72704686     4.46756895    -5.77266787    -0.17966085    -0.30143277    -1.29879677
O      -8.06716443     4.36550441    -9.85706627     0.79185119    -0.07750923    -1.06788620
O      -7.60072333     4.28508126    -5.91433262    -1.17359065     0.66553195    -1.05281928
O      -7.90455397     8.76486553    -9.93835938    -0.93214394    -0.52663539    -0.19434432
O      -8.01040110     8.68549182    -5.92173238     0.77314362    -0.13104254    -0.28840580
O     -11.72252958     8.74239689    -6.17893773     0.38592343    -0.20264469     0.78796117
O     -11.57833638     8.68496887    -9.83967959     0.14612758    -0.03242412    -0.14655954
O      -1.98159039     4.34129943    -3.83095988     0.80382842    -0.64298109     0.03220269
O      -1.97210268     4.14746541    -0.18134907    -0.00539315     0.10869836     0.31485736
O      -5.96434398     4.20035175    -3.95084930    -0.54707121     0.09916030     0.07869555
O      -5.78945537     4.36835543    -7.83234854    -0.84780463    -0.04428600    -0.55625900
O      -2.01717718     0.27086539    -4.08561669    -0.05485101    -0.09281454     0.09494799
O      -5.91358026     8.60297309    -7.96181390     0.23380812     0.27062139     0.09058794
O      -5.93569740     0.37682636    -4.02616439     0.08438834    -0.28561788     0.66752177
O      -5.80883039     0.50573721    -8.04663787     0.02871373     0.42893815    -0.79708335
