# total energy = -630.90551003 eV

CRYSTAL
PRIMVEC
        0.00279571     0.02951795    -7.98606283
       -7.83802570     0.01298533    -3.99532603
       -3.92160916     8.71933433     0.00634407
PRIMCOORD
56 1
Li     -4.06793586     2.45103983    -1.89856212     0.64203820     0.02253952    -0.30662020
Li     -4.00213688     2.06299593    -5.98077894     0.06221004     0.16516541    -0.11169100
Li     -7.81231082     2.09957379   -10.15674885    -0.50120031     0.35215029     0.94446524
Li     -7.83372695     2.32092428    -5.94881088    -0.15911472    -0.13570411    -0.23977407
Li     -3.86044817     6.52589894    -1.98670647    -0.42512997    -0.11695950     0.56528485
Li     -3.88857200     6.59019448    -5.87785429    -0.38083824    -0.38195893     0.10738217
Li     -7.90645512     6.38915325    -9.85424230     0.48306074    -0.02410027    -0.55518277
Li     -7.78609299     6.47684850    -5.84657916    -0.37274080    -0.07351353    -0.27154350
Ti     -1.96451313     2.21530549    -4.01190071    -0.08350890     0.46647214    -0.85114621
Ti     -5.85991616     6.67923791    -7.92873358     1.89320971     0.49710611    -0.94960937
Ti     -7.66795895     4.36212117    -7.83167796    -0.70511056    -1.54421576    -0.28413273
Ti     -7.81783823     4.27744011    -3.75687826     1.37775067     1.24834190    -0.02525626
Ti     -3.79183573     4.37612587    -7.74018662    -1.01073154     0.68809678     1.14367310
Ti     -3.90656643     4.47567614    -3.73436420    -0.41219966    -0.66308824     0.73075965
Ti     -6.14016615     8.70331202    -2.02083804     0.85780736    -0.29748597    -0.48509048
Ni     -5.97497640     2.32770295    -7.97546101     1.68100614     1.05713639    -0.72512563
Ni     -5.94703245     2.16561339    -4.05533145     1.61823331     0.24125998     0.07987210
Ni     -9.71210226     6.43606709    -7.91738180    -0.93224746     0.03551503     0.05267234
Ni     -9.72191458     6.32754568    -3.86344164    -1.14801288     0.29737554    -0.74081461
Ni     -1.88741127     2.28383360    -8.09289900    -1.26405337    -0.29663668     0.66093480
Ni     -5.93760705     6.68599706    -4.02123370     0.52420567    -0.69056981     0.49303187
Ni     -2.04865415     0.08165231    -6.03335482    -0.05916091    -0.30101282    -0.19790527
Mo     -6.03375111     0.03690787   -10.23366034     0.01444446     1.22056676    -0.36304273
Mo     -9.84921385     8.61565317    -6.34691102    -0.36350313     0.39662798    -0.10690390
O      -2.07840662     1.95059789    -2.13483601     0.96876082    -0.17966123     1.33434677
O      -2.02192357     1.91345629    -6.08585437     0.17903726    -0.53100081     0.25206624
O      -5.87633549     6.77446555    -1.92350572    -0.53658759     0.47815951    -0.88971154
O      -5.90572527     6.89041316    -6.04271971     0.09447041     0.48218169     1.49408750
O      -5.84956270     2.05076502   -10.03606312    -0.71455674    -0.79693552    -0.56072134
O      -5.97839979     1.96723341    -5.93057952     0.55927835    -0.23293139    -0.43247903
O      -9.77820652     6.95477218    -9.85550928     0.28140398    -1.00988078     0.27931115
O      -9.81198553     6.74880958    -6.09892652     1.06102384    -0.32046630     1.09610839
O      -3.98188380     2.46512142    -4.00262399    -0.04118392     0.30152391    -0.19061039
O      -3.85139480     2.50185539    -8.00313476    -0.34794300    -0.68179049     0.36696401
O      -7.82689963     2.35783207    -4.01312937    -0.36472000    -0.24808363    -0.37253811
O      -7.84532882     2.36015439    -8.03564174    -0.35752526     0.08337821    -0.03807263
O      -3.79800753     6.40818865    -3.85181352     0.17070378     0.17904276    -1.20902260
O      -3.94545133     6.42860214    -7.98469520     0.66454656    -0.45526983     0.57418886
O      -7.88664624     6.26545869    -3.94581035     0.02631790     0.50377844     0.02575221
O      -7.74437681     6.23960405    -7.92288352    -1.11108236     1.43054842    -0.44457573
O      -3.62154328     4.49417299    -1.92224398    -0.83839849    -0.20505633    -1.95282427
O      -3.80482395     4.60907593    -5.95289435    -0.07177823    -0.14821191    -0.52221028
O      -7.86484828     4.37108627   -10.00250465    -0.06484997    -0.18957528     0.77910245
O      -7.88845143     4.29310523    -6.11004884     0.15678956     0.07404312     1.28045326
O      -7.89976326     8.74114939    -9.90363093    -1.63140551    -0.06540990    -0.21439376
O      -7.98222733     8.64824631    -6.12121485    -0.38127483     0.44822682     0.12898526
O     -11.63589415     8.58595915    -5.99755908     0.58926798     0.63139006    -0.19935801
O      -7.81410973     0.03950166    -9.92007662     1.12430624     0.12432148    -1.00395852
O      -1.89397335     4.10774291    -4.08916123    -0.65199611     0.29384977    -0.03300662
O      -9.74482153     4.38655004   -11.93323857     0.71779831     0.19263438    -0.50181366
O      -5.89132342     4.67168703    -3.97614823     0.63483543    -0.14543189    -0.20887905
O      -5.75276758     4.39072806    -8.11983517    -0.90065069    -0.57109196     0.47983507
O      -1.97092058     0.17114252    -4.00555226    -0.36181012    -0.48064152     0.12668325
O      -5.83888466     8.56655964    -8.03500496    -0.15776109     0.16101956     0.27928240
O      -5.85210727     0.18147745    -4.08782862    -0.29328336     0.07146725     1.35829674
O      -5.99417647     0.54830804    -8.10712152     0.43229107    -0.70954826     0.20527387
