# total energy = -630.77118276 eV

CRYSTAL
PRIMVEC
        0.00279571     0.02951795    -7.98606283
       -7.83802570     0.01298533    -3.99532603
       -3.92160916     8.71933433     0.00634407
PRIMCOORD
56 1
Li     -3.98885653     2.30132943    -2.06141644     0.18743064    -0.06043263     0.78569839
Li     -3.93573951     2.45738870    -5.92650415    -0.06898674    -0.61242784    -0.59633931
Li     -7.66671823     2.40060257    -9.97007204    -0.53838334     0.10517343     0.12706152
Li     -7.89122398     2.50449853    -5.89282450     0.27910413    -0.55862987    -0.02678230
Li     -3.96952400     6.55213719    -2.08775871     0.71137074     0.12000955     0.69767071
Li     -3.92156011     6.41438297    -5.91453154    -0.09282506    -0.24825502    -0.41184942
Li     -7.85552324     6.32779257    -9.97555479    -0.01464320     1.01630880     0.08106078
Li     -7.85341604     6.53226305    -6.00860025    -0.11191118     0.19491296     0.80854275
Ti     -1.91936862     2.16997975    -4.03635673     0.21563815     0.32268687    -0.82699124
Ti     -5.91581455     6.78252730    -7.94478255     0.58313578    -1.69653465     0.23017026
Ti     -7.78045274     4.44442510    -7.74525091     0.36135790    -0.56394077    -3.31552059
Ti     -7.76712475     4.38468073    -3.78265009    -1.13949421    -0.34184324     0.65759259
Ti     -3.80501108     4.34713410    -7.83454503    -0.28258196     0.48266531     0.53790979
Ti     -4.04700261     4.33567984    -3.73173957     1.34755960     0.99597869     0.43966661
Ti     -2.20927290     0.10285721    -2.00267177    -0.29347400    -0.93738818    -0.50523182
Ni     -5.89020948     2.03963564    -7.92790330     0.90692856     0.21007303     0.01010693
Ni     -5.80391527     2.27610890    -4.02182906    -1.63159275    -0.98003390    -0.64570564
Ni     -9.81662805     6.30415044    -8.09699884    -0.23176641     0.10742011     0.30342554
Ni     -9.71777255     6.65516578    -3.95960679    -0.32750323    -0.37585556     0.07219477
Ni     -1.98726530     2.08513434    -7.97078709     0.18853086     0.79484769     0.58152424
Ni     -5.83416236     6.75983895    -3.90772288    -0.38710527    -0.17650479    -0.78787725
Ni     -2.04543709     0.09898668    -5.95081837     0.62724182     0.47549141     0.84316862
Mo     -9.99497557     8.72101929   -10.35413657    -0.85709095    -1.84700710     2.12450288
Mo     -5.87707495     0.04859519    -6.34595954    -1.14152825    -0.67077276     0.15168868
O      -1.97027359     1.95816266    -2.06848080    -0.17393516     0.39663775     0.99759574
O      -1.95865515     2.04224584    -5.93913624     0.00817705    -1.48243051    -0.42983281
O      -5.88555225     6.85266543    -1.87233210     0.45564236     0.32339579    -1.10506430
O      -5.77776058     7.01517206    -5.87027275    -1.20679483    -0.61224816    -0.26826117
O      -5.79748939     1.82520333    -9.79599117    -0.72045550    -0.06461921     0.08549757
O      -5.90278773     1.99162746    -6.06360325    -0.20825445     0.05753730    -0.18637686
O      -9.85825854     6.70766627   -10.15279065     0.57533672     1.21990123     0.81571034
O      -9.76769916     6.86015170    -5.71436582     0.08209890     0.16415419    -1.65961201
O      -3.92550449     2.39305100    -4.05698249     0.51698993    -0.18186596     0.89613476
O      -3.93778178     2.30104868    -7.95606245    -0.73216837     0.46546581    -0.22264917
O      -7.80433385     2.41324571    -3.95885492     0.52375489    -0.12957609    -0.04654966
O      -7.82783484     2.38477928    -7.94487469     0.49135204     0.96068278    -0.22676088
O      -3.89309147     6.26919182    -4.06884936    -0.25116351    -0.69339274     0.94523613
O      -3.76066297     6.37192733    -7.97793137    -0.96116251    -0.14928372     0.00469731
O      -7.69072314     6.29814349    -3.96950310    -0.62226026     0.90122892    -0.34293929
O      -7.87066190     6.38890372    -7.94429390    -0.32115911     0.43785044    -0.16710237
O      -3.92046718     4.26925566    -1.92839535    -0.45769396     0.09814774    -1.40716558
O      -3.92814196     4.28420411    -6.07328402    -0.29587336     0.63939715     0.08847429
O      -7.65909526     4.56056409    -9.99925614    -0.34542045    -1.44600986    -0.00335951
O      -7.80562474     4.48339395    -6.06901551    -0.34521398    -0.23209697     3.39348777
O      -7.94143596     8.58516410    -2.12170107     0.01396454     0.56597204    -0.05901945
O      -4.09545430     0.08189139    -5.89173760     1.33340302    -0.16004346    -0.37478127
O     -11.60892612     8.71898645    -6.13061368    -0.00577138     0.14186893     0.70395139
O      -3.95561178     8.69412045    -5.98162725     2.05468501     0.49240830    -0.85867606
O      -2.02999058     4.24937930    -4.11689787     0.87805824     0.51772182     0.45669899
O      -1.92082009     4.00941559    -7.96263351     0.63095853    -0.09943523    -0.34006982
O      -5.86434173     4.13016590    -4.05581085    -0.25494391     0.01901633    -0.26022483
O      -5.91763009     4.86949691    -7.93038767     1.07541167    -0.22200702    -0.07302486
O      -1.75976672     0.25509511    -3.92283666    -0.99129865     0.09921378    -0.08787517
O      -5.96305044     8.72923500    -7.93913413     0.10188267     0.56890397    -0.79636469
O      -5.94427264     0.41406252    -4.09054057     0.06576386     0.36011794    -0.13231485
O      -9.87788004     8.12396938    -8.07001690     0.69045055     0.38898888    -0.74383225
