# total energy = -630.45825720 eV

CRYSTAL
PRIMVEC
        0.00279571     0.02951795    -7.98606283
       -7.83802570     0.01298533    -3.99532603
       -3.92160916     8.71933433     0.00634407
PRIMCOORD
56 1
Li     -3.93385614     2.33151593    -1.86318955    -0.37338303    -0.22422499    -0.37967390
Li     -3.87605043     2.45161625    -5.99177414    -0.13537277    -0.51130486     0.29897859
Li     -7.72706821     2.12459457   -10.03149632    -0.71269744     0.61294554     0.06282478
Li     -7.88900473     2.00556582    -5.98184886     0.00389653     0.24912355     0.26319145
Li     -3.97837232     6.67851348    -2.04892478     0.58912968     0.05170854     0.30749301
Li     -3.89983038     6.26845314    -5.95258656     0.05195574     0.47343311    -0.01278274
Li     -7.78080666     6.52247367    -9.94296831    -0.21963571    -0.21172631    -0.22491384
Li     -7.90255130     6.51518663    -5.98121113     0.59852338     0.02571677    -0.12090253
Ti     -1.96782173     2.02690860    -4.04813051    -0.58511473    -1.05963624     0.16305902
Ti     -5.85809497     6.41273153    -7.97766067    -0.27742752     1.22192482    -0.04759138
Ti     -7.94489752     4.36654027    -7.85343852     1.31233836     0.01417155     0.79941442
Ti     -7.78253758     4.44807369    -3.83315823    -0.57664862    -1.16484879     0.70532155
Ti     -3.89234470     4.39859814    -7.76890403     0.55342525     0.16480417     0.22041559
Ti     -3.93587891     4.49891218    -3.66056869    -1.35773897    -1.44393408     0.67736516
Ti     -2.21917704     0.05399714    -1.85587295    -0.44417444    -1.65899569     0.43535225
Ni     -5.74231211     2.18543766    -7.84089716    -1.38248074     0.26476273    -0.90740851
Ni     -5.90986473     2.37243071    -4.22639371     0.46949797    -0.17341246     1.64873855
Ni     -9.80862351     6.34114564    -7.96600559     0.49139639     1.58282375    -0.78078815
Ni     -9.81008419     6.63073248    -4.07479614     0.92445393    -0.21003267     1.48838500
Ni     -1.94646058     2.40332151    -7.87303381     0.47858658    -1.67166029    -0.46152154
Ni     -5.90104656     6.63871803    -4.02523319     0.46674702    -0.13887680    -0.30582624
Ni     -5.81909758     8.73918017    -6.06689270    -0.89765617    -1.30764413     0.23375738
Mo     -9.94296204     8.75475736   -10.21014491     1.11104618    -0.55243330    -1.18372777
Mo     -5.83482235     0.02614035    -6.32641265     0.81918234     0.85544220     0.11679722
O      -2.02890512     1.87622632    -1.95640847     0.71696402     1.37979907    -0.15269405
O      -1.95285747     1.88353711    -6.01766981     0.39991881    -0.06273767    -0.11690719
O      -5.78971420     6.74105783    -2.01955550    -1.40855558     1.33530955    -0.55105661
O      -5.81631211     6.76096931    -5.99318492    -0.37639441     1.45525343     0.31996017
O      -5.94323508     1.85029718    -9.77407881     0.73118127     0.44853442     1.21241385
O      -5.91270047     1.97682829    -6.02041269     0.50426742    -0.13434677    -0.55515213
O      -9.66605834     6.84508744   -10.10819282    -0.72324339    -0.48658235    -0.41292555
O      -9.77221784     6.86163935    -5.87683778    -0.45764029    -1.09241567    -0.01756409
O      -3.85095823     2.39414336    -4.00291509    -0.31092979     1.11895430     0.34917220
O      -3.90735358     2.45382329    -7.95879789    -0.06584554    -0.15477660     0.18516182
O      -7.77252506     2.35014765    -4.00502876    -0.87268507     1.14175741    -0.38838536
O      -7.93028148     2.41510054    -7.95834746     0.60588589    -0.09936998    -0.23624150
O      -3.93001693     6.33442106    -4.08165246     0.05617688     0.19558318     0.75294732
O      -3.84127847     6.39974030    -7.94813696    -0.64224389    -0.45751799     0.01579608
O      -7.78016635     6.32807631    -4.09338204    -0.53618519     0.75901600     0.42082017
O      -7.86167885     6.32716887    -7.98174444     0.03467085     0.07777248    -0.27058976
O      -4.20174569     4.53056539    -1.86783001     1.26226614    -0.78921570    -1.93124663
O      -4.10358862     4.34392299    -5.97748051     0.44304636     0.26744698    -0.85264680
O      -7.77333903     4.46180816   -10.04236288    -0.14093147    -0.14661816    -0.08946286
O      -7.67329657     4.44257183    -6.12353454    -0.54212350    -0.28480707     0.50356227
O      -4.06591662     0.15411884    -9.88141751     1.49429002    -0.61502571    -0.54454760
O      -3.98345177     0.05493120    -5.99069489    -0.81061521     0.01927782    -0.17316202
O     -11.57557329     8.70816620    -6.08178032    -0.12176176     0.54563319     0.22974537
O     -11.68020448     8.64778575   -10.12535643    -1.59572852     0.30253047     0.97479369
O      -2.03675659     4.42328587    -3.95146443     0.10180335    -0.24210083    -0.14439220
O      -1.98036310     4.23978536    -7.97362694     0.68017927     0.83160203    -0.38965032
O      -5.87414040     4.22685318    -4.05842687     0.15045642    -0.35449304    -0.17618680
O      -5.91309273     4.58095609    -8.10902239     0.12371471    -0.40166446     0.44012252
O      -1.85909485     0.20350844    -3.95604431    -0.38852036     0.14788764     0.11358324
O      -5.94700981     8.37899288    -7.98945545     0.24697530     1.08332837    -0.49558000
O      -6.00573442     0.36090168    -4.00157302     1.03589648     0.15386822    -0.20968070
O      -9.73522176     8.20533013    -8.04452400    -0.27760913    -0.42192561    -0.94359184
