# total energy = -630.40381568 eV

CRYSTAL
PRIMVEC
        0.00285542     0.02004370    -7.95977623
       -7.82940539     0.00763210    -3.98158109
       -3.91729101     8.74642787     0.01461334
PRIMCOORD
56 1
Li     -3.81530587     2.55008570    -1.95514658    -0.47619088    -0.30463294     0.11043574
Li     -3.93117990     2.05300844    -6.10768574     0.17450415    -0.10000723     0.78861350
Li     -7.98901958     2.34541633    -9.89910825     0.96608532     0.19991451    -0.63785662
Li     -7.87827989     2.36324017    -5.83054546     0.36851007    -0.55032665    -0.49680616
Li     -4.05193406     6.80392835    -1.81822340     0.61865279    -0.57182456    -0.25689044
Li     -3.87307169     6.71207782    -5.81833069    -0.07986702    -0.52537574    -0.07298609
Li     -7.97097852     6.49369855   -10.10978481     0.15252322    -0.16134585     0.72919636
Li     -7.78382361     6.39184366    -6.03071131    -0.40999430     0.44423788     0.79951217
Ti     -1.90000320     2.18037022    -4.02373896    -1.41144852     0.19880438    -0.11376861
Ti     -5.85130287     6.71359391    -7.87398671    -0.33142282     0.24032692     0.20520265
Ti     -7.78867992     4.29662787    -7.74130613     0.50445908     1.67125774    -0.11506969
Ti     -7.71963748     4.32913160    -3.81079407    -0.62012038     0.98774914     0.15275894
Ti     -3.86804997     4.41133547    -7.69511756     1.63249226     0.02713022     1.66320642
Ti     -3.87100762     4.51944518    -3.73110993    -0.54382240    -1.00554636     0.66610085
Ti     -6.23422257     8.72357805    -2.08886711     1.49023908    -0.35992680     0.07186232
Ni     -5.81889499     2.33327146    -7.93083235     0.33155098    -0.52427863    -0.41772851
Ni     -5.87437364     2.14842977    -4.04539987     0.06827348     0.20442355     1.14460684
Ni     -9.84651688     6.52943304    -7.86497001     0.76801739     0.59784440    -0.93708357
Ni     -9.77098893     6.42440441    -3.99284788     0.12791695    -0.43939300    -1.02912169
Ni     -1.92473742     2.23599695    -7.98720744     0.18517800    -0.37638907     0.31613698
Ni     -5.73307519     6.55033927    -3.94019662    -2.71377051     0.38459677     0.01571155
Ni     -5.86836214     8.74668832    -5.97319669    -1.15576222     0.17463312     1.49871270
Mo     -6.05034763     0.15396193   -10.27414099     1.19340695    -0.08707277    -0.75457033
Mo     -9.83784788     8.61381636    -6.31188437     1.31252533     0.10626628    -0.33402468
O      -1.90829011     1.83907322    -2.08128237    -0.52487100     0.96821082     0.90806065
O      -1.95038571     1.90124531    -5.95876021    -0.27246569    -0.88059517    -0.28396536
O      -5.97935357     6.80465065    -1.89569959     0.70762374     0.20006280    -0.07847931
O      -5.91670566     6.90216471    -5.81556367     0.99673754     0.00158092    -1.49452895
O      -5.86422836     2.04909050   -10.06552339     0.05104595     0.00987456    -0.21092086
O      -5.81098303     1.79353360    -5.81928783    -0.26646714     0.66450804    -0.69272161
O      -9.81376979     7.10752617    -9.67680958     0.03914569    -1.16958599     0.04812498
O      -9.85184465     6.67943960    -6.09257025     0.15293843     0.18031006     1.78288066
O      -3.95646040     2.56230061    -4.03816411     0.35290431    -1.01135699     0.47905131
O      -3.74885757     2.47443672    -7.93690770    -1.14528883     0.03850614    -0.26901266
O      -7.89672298     2.38124406    -3.98934745     1.05940059     0.11452607     0.10210060
O      -7.79555218     2.36546264    -7.91181390    -0.07384557     0.01688406    -0.42537928
O      -3.90599516     6.48859693    -3.79398345     1.04905621    -0.27738218    -0.71582474
O      -3.85268572     6.41048344    -7.78768056    -1.65435774     0.06237663    -0.97699375
O      -7.90478685     6.36374094    -4.12155672     0.63367169    -0.90512950     1.18732279
O      -7.76750515     6.35629560    -7.96216741    -0.21635581    -1.09844235     0.36145419
O      -4.01242699     4.45316980    -1.92849814     0.46614225     0.14521538    -1.10061552
O      -3.77006003     4.55499418    -5.90224231    -0.51985719     0.10029430    -0.86768912
O      -7.99672668     4.37762292   -10.02541997     0.53756690     0.12756238     0.84596316
O      -7.91537368     4.37299841    -5.98418386     0.04795464    -0.26883423    -0.46563050
O      -4.04803103     0.04157463    -9.93246136    -0.14858345     0.44877460    -0.48949298
O      -7.95713665     8.56666106    -5.98179853    -0.90174631     0.70492008    -0.37581515
O     -11.61172034     8.73660722    -5.99555897     0.13860200    -0.39436858     0.16041556
O      -7.75988750     0.12502759   -10.08515484    -1.60849712     0.18812942     0.38960775
O      -1.92418120     4.11952107    -4.04187439    -0.03503939    -0.34596718     0.40091009
O      -9.74620215     4.52466890    -4.04253381    -0.71332832     0.22990076    -0.25105079
O      -5.84269805     4.62334602    -4.03255653     0.50652652     0.10849618    -0.06034104
O      -5.82586979     4.24828450    -7.87248714    -0.53614093     0.37640332    -0.18657914
O      -1.85752539     0.11081547    -3.95455167    -0.51328196     0.32597201    -0.68075617
O      -5.88002284     8.53801583    -7.84295523    -0.01970501    -0.17030505    -1.02891322
O      -9.82767903     8.25122048    -4.04445801     0.29084222     1.20069683     0.66749764
O      -5.85987149     0.46424717    -8.10360251    -0.05187351     0.85853366     0.36682780
