# total energy = -631.00141337 eV

CRYSTAL
PRIMVEC
        0.00285542     0.02004370    -7.95977623
       -7.82940539     0.00763210    -3.98158109
       -3.91729101     8.74642787     0.01461334
PRIMCOORD
56 1
Li     -4.05509899     2.23613573    -2.01266199     0.42996378     0.25428394     0.35672523
Li     -3.95775278     2.31986232    -5.89092791     0.11913096    -0.08559802    -0.39355286
Li     -7.86781788     2.31740857    -9.91919611    -0.20683173    -0.16407808    -0.16982217
Li     -7.68955756     2.57913545    -5.93693453    -0.44654641    -1.09616343     0.56273207
Li     -3.82044953     6.50350437    -1.94869410    -0.73029226    -0.09108449     0.01007474
Li     -3.92994282     6.32878108    -5.90521297     0.02914351     0.25801998     0.07751416
Li     -7.84663661     6.57550034    -9.98965013     0.02552582    -0.09260377     0.51737150
Li     -7.93843213     6.46282812    -5.71086427     0.57274202    -0.00174987    -1.05859510
Ti     -1.91752587     2.12738363    -3.96865280    -0.12178302     0.14616410     0.40301602
Ti     -5.82027010     6.70434860    -7.93876081    -0.63301221     0.16965134    -0.21386345
Ti     -7.77090960     4.35626684    -7.72109566    -0.51934642     0.74098393    -0.55578893
Ti     -7.63659857     4.35932235    -3.69601411    -1.22839678     0.25392853     1.28052069
Ti     -3.81918745     4.31570607    -7.75068982     0.66589115     0.04291505    -1.04990761
Ti     -3.88068300     4.45155658    -3.75104190     0.60137766    -0.17739525     1.82933328
Ti     -2.22828676     0.07478240    -1.97449815     1.30654510     0.14609342    -0.37337231
Ni     -5.93784732     2.32309033    -8.01937976     1.54914329     0.96016962     0.29432871
Ni     -5.86050261     2.17447676    -4.09577331     0.02139108    -0.81922214     0.32924092
Ni     -9.77042646     6.51855514    -7.82678774    -0.14926027    -0.09204196    -0.48860059
Ni     -9.73253686     6.47526065    -3.99872351    -0.99217043    -0.23638056     0.06330164
Ni     -1.94223403     2.20698350    -7.91780409     0.05243942    -0.24273889    -0.52096483
Ni     -5.84767581     6.65670218    -4.04954079    -0.08403802     0.33239753     1.65921518
Ni     -5.98859588     8.74326513    -5.87750635     0.03408308    -0.10171334    -0.70199478
Mo    -10.00497520     8.76916448   -10.18059093    -0.58178861    -1.29697870    -0.12282386
Mo     -9.81257493     8.68608524    -6.44311636    -0.57442267    -0.85437096     1.33063525
O      -1.96886445     2.10141469    -1.96237453     0.17005147    -1.43825548     0.00668302
O      -2.00635153     1.85403997    -6.02587371     0.16487733     0.08987317     0.48738439
O      -5.75022876     6.89217923    -2.08302758    -0.74374264    -0.05818383     0.55485448
O      -5.93567871     6.83800219    -5.87376797     0.06750466     0.71419759    -0.60561005
O      -6.01168155     1.90044997   -10.10934465     1.26257759     1.77273012    -0.04367733
O      -5.84824087     1.95775911    -5.96352055     0.14983221     0.24344453    -0.04871369
O      -9.82190560     6.97233968    -9.67771526     0.43659521    -0.19757240    -0.00386415
O      -9.81143152     6.69703201    -5.97878071     0.26402535     1.24695694    -0.15093456
O      -3.78299137     2.41968672    -3.95052050    -1.72452883    -0.14165027    -0.28439454
O      -3.80941769     2.43933872    -7.94901373    -1.05308168    -0.26377095    -0.14863403
O      -7.91216492     2.39014831    -3.93873384     0.55966057     0.92349052     0.02065681
O      -7.78912690     2.28560297    -7.92086940    -0.81099031     1.38055507    -0.45786374
O      -3.90400333     6.42021891    -3.99312003     0.38071149    -0.84062997     0.23603036
O      -3.96433959     6.34479866    -7.89160482     0.32822571     0.42083884    -0.15970882
O      -7.87441477     6.31202500    -3.90431032     1.16208794     0.40662406    -0.23529063
O      -7.74816591     6.31317332    -7.91292726    -0.29254991     0.48392118     0.18035443
O      -3.87190474     4.46011026    -1.92740870    -0.56608108     0.08838629    -1.81050619
O      -3.91437431     4.43462549    -6.01693959    -0.07767723    -0.08808397     1.58910714
O      -7.78761436     4.64428377    -9.84699848    -0.02544704    -1.48629558    -1.74886398
O      -7.77479134     4.43094590    -5.96270188    -0.19919889     0.29726295     0.61319298
O      -3.98860612     0.04982876    -9.89662427    -1.03610986     0.17518938    -0.36929546
O      -8.03992038     8.69845031    -6.05234599     0.99486547     0.01506009     0.16973465
O      -7.66344031     0.08537578    -6.16350319     0.49792868    -0.62092226     0.52944318
O      -7.82578840     0.06232055    -9.89025703    -0.25048944    -0.34242071    -0.67170429
O      -1.97371526     4.19726852    -3.92722988     0.72562672    -0.49434835    -0.63340765
O      -9.71944827     4.61602328    -3.98762906     0.07487721    -0.16086765     0.08180362
O      -5.78362895     4.09532014    -4.01134642    -0.44893754     0.00696491    -0.18110770
O      -5.90086388     4.26815952    -7.95005527     0.97641097    -0.19895650    -0.30867089
O      -2.02349103     0.18953824    -3.88552937     0.03674554     0.83464353    -0.59158431
O      -5.86762494     8.52824073    -8.02774927     0.22518610    -0.39414822     0.95524547
O      -9.76281126     8.57005206    -4.01150905    -0.39671295     0.03627849     0.09983045
O      -5.84896813     0.53589113    -8.18547855     0.11855010    -0.22348974    -0.03190504
