# total energy = -630.92988709 eV

CRYSTAL
PRIMVEC
        0.00279571     0.02951795    -7.98606283
       -7.83802570     0.01298533    -3.99532603
       -3.92160916     8.71933433     0.00634407
PRIMCOORD
56 1
Li     -3.81634157     2.24080363    -1.94816509    -0.52859414    -0.03293422     0.50695917
Li     -4.08460539     2.22878173    -5.86304874     0.86386580     0.18420732    -0.71721617
Li     -7.64317885     2.34789582    -9.92306806    -0.60719709     0.04039283    -0.19322677
Li     -7.65196068     2.52348435    -6.00015693    -0.87337523    -0.33951197     0.19394833
Li     -3.98412054     6.52287727    -1.89300033     0.18854340    -0.02367481    -0.32031386
Li     -3.86266895     6.76814706    -5.75084595     0.09257188    -0.31837712    -0.18760886
Li     -7.91787954     6.53879029    -9.86348748     0.21489848     0.03459930    -0.33259239
Li     -7.83098742     6.53573308    -6.02925084    -0.05302579    -0.07868404     0.96574066
Ti     -2.07250477     2.20764639    -4.03989011     0.14567293     0.12929498     0.73875870
Ti     -5.86913439     6.59886062    -7.92150178     0.10595929     0.56428280    -0.06236811
Ti     -7.96281690     4.43371698    -7.78225303     0.22943504    -0.46052646    -0.53522334
Ti     -7.83438734     4.42796582    -3.71792753    -0.52150310    -0.09195037    -0.73480303
Ti     -3.86503636     4.44213670    -7.67504952     0.05613880    -1.97713507     0.50025219
Ti     -4.04941833     4.46499975    -3.73974867     0.24360200    -1.15958556     0.57422189
Ti     -5.92815811     8.67134947    -2.08731878    -0.98930333     0.91841366     0.47078925
Ni     -5.85555490     2.35431489    -7.98841008     0.74194669     0.58967577    -0.12672357
Ni     -5.92871970     2.31473725    -4.11455718     0.17131359    -0.25948979     1.39840054
Ni     -9.86401444     6.51838795    -7.86044057     1.05432461     0.03928917    -0.58715782
Ni     -9.84059424     6.36225132    -4.04518924     1.08572936     1.05542176    -0.32211748
Ni     -1.87195649     2.14194185    -7.91548379    -0.74764857     0.07166994    -0.67131564
Ni     -5.97009873     6.57968451    -4.07287764     0.44424756    -0.05143693     0.86566601
Ni     -1.88655482     0.09990583    -6.03936738     0.14027098    -1.14386521     0.37247994
Mo     -9.83515016     8.72166026   -10.25633730     1.42116528     1.03334762    -0.16562465
Mo     -9.77644215     8.62136521    -6.41201410    -1.30707506     0.35630805    -0.06588716
O      -1.86519222     1.92337995    -2.00268355    -0.04423867    -0.06232107    -0.01974428
O      -1.90081626     1.93942989    -5.99077850    -0.12613025    -0.58421026    -0.25404617
O      -5.92643084     6.74078611    -2.07541118     0.03153980     0.19141006     0.38770281
O      -5.66842433     6.84647382    -5.99947964    -1.67252794     1.10117299     0.14420199
O      -5.82832153     1.94389043   -10.13672450    -0.08164882     0.11582454    -0.17319674
O      -5.86928307     1.99665067    -5.94411924    -0.36490943    -0.72256676    -0.56448710
O      -9.82046221     6.83108168    -9.74470860     0.17525662     0.56048456     0.38316857
O      -9.81253232     6.68955410    -6.05010196    -0.04336896     0.28065247     0.55345921
O      -4.01750706     2.32907146    -3.93487489     1.35594391     0.20151878    -0.67018715
O      -3.77390010     2.39305333    -7.85024210    -0.81608510     0.85339253    -0.56843667
O      -7.86190497     2.44730003    -3.98343930     0.55837486     0.35043945    -0.04620105
O      -7.83373273     2.54373629    -8.01520191     0.17267235    -0.82546157     0.07734722
O      -3.88495254     6.32557164    -3.83544010    -0.47947241     1.16550384    -0.65726594
O      -3.90584954     6.36714735    -7.97844657    -0.44532219     0.03218206    -0.00519188
O      -7.91534250     6.39417550    -3.97567312     0.48321631    -0.81348040    -0.23799397
O      -7.83400494     6.36696193    -7.88447412    -0.05739832     1.07301231    -0.83270884
O      -4.21314112     4.24373383    -1.99728435     0.87431493     0.12934020     0.04495662
O      -3.78862798     4.26613574    -5.92089913    -0.41085250     0.33509573    -0.26419931
O      -7.82689583     4.44421011    -9.95603126    -0.00106504     0.20430280     0.37424139
O      -7.88524850     4.46607853    -6.06648974     0.21244733    -0.03017305     1.53132649
O      -3.92659901     0.07250672    -2.00773716    -0.07319271    -0.58278595    -0.10108818
O      -8.05441462     8.63374550    -5.97857666     0.78827714     0.35616166    -0.24423424
O     -11.56812091     8.65319149    -5.94681990     0.09305085    -0.08169381    -0.28967470
O      -7.67998614     0.08913068   -10.06602949    -0.86784242    -0.20614216    -0.16879546
O      -2.05367802     4.21647514    -3.97241980     0.03938231    -0.79938577    -0.01210061
O      -9.79186807     4.52432664    -4.15406227    -0.03648968    -0.20562368     0.44432829
O      -5.92074477     4.32169565    -4.10909145    -0.74245028     0.19794546    -0.42944375
O      -5.85133799     4.51836025    -7.83841629    -0.03068872    -0.17789764    -0.49556477
O      -1.92867165     0.23282455    -3.96608893     0.22200792     0.18299858    -1.04071782
O      -5.91126786     8.54012807    -8.07631660     0.38097530    -1.07002485     0.58599776
O      -9.67467183     8.29924684    -3.99061694    -0.63194388     0.09400162    -0.39846494
O      -5.91035320     0.55018561    -8.18789564     0.19338021    -0.33584443     1.51846234
