# total energy = -630.88420084 eV

CRYSTAL
PRIMVEC
        0.00285542     0.02004370    -7.95977623
       -7.82940539     0.00763210    -3.98158109
       -3.91729101     8.74642787     0.01461334
PRIMCOORD
56 1
Li     -3.95045404     2.44698561    -1.82958395    -0.07859191    -0.22507642    -0.21114607
Li     -4.09746693     1.77536589    -5.90388233     0.53866647     0.78957487    -0.08086655
Li     -7.72141646     2.45910800    -9.91402546    -0.17538342    -0.32686604     0.10167384
Li     -7.89260658     2.25823851    -5.73425818    -0.20660776     0.07199257    -0.95935827
Li     -3.92127758     6.34071795    -1.94521699     0.02714030     0.35743411     0.10925668
Li     -3.77586288     6.35780727    -5.78018752    -0.21031814     0.55147543    -0.34307216
Li     -7.70389673     6.44956141    -9.75874617    -0.40022738     0.31407356    -0.73031897
Li     -7.60927000     6.49657787    -5.85326657    -0.65759818    -0.01365240     0.01096479
Ti     -2.03224948     2.47716663    -4.15636335     0.78724763    -0.72052285     0.61671594
Ti     -5.73747838     6.88288723    -8.02931231    -0.16524137     0.76523271     0.92227918
Ti     -7.70691441     4.42072684    -7.72651302     0.22263105    -1.18877193    -0.73029681
Ti     -7.81916542     4.39728496    -3.71510056    -0.92987350     1.43657936     0.58472244
Ti     -3.91046525     4.24906177    -7.58019467    -0.42184241     0.21419341    -0.30951855
Ti     -4.19409648     4.44000874    -3.74033225     0.82234730    -0.56070708    -0.50681796
Ti     -2.01900800     0.14673790    -2.35622028     0.33108978    -0.46265469     0.79768919
Ni     -5.90284973     2.17600794    -8.00512982    -0.26958496    -0.05925095     0.11371348
Ni     -5.90833202     2.21803205    -3.96875878    -0.35178618     0.51767228    -1.09572718
Ni     -9.74778211     6.35968006    -7.76055483     0.27334199     0.32092608    -0.40687735
Ni     -9.84276892     6.39977197    -3.91798381     1.44574314    -0.40311702    -0.02971755
Ni     -1.99150592     2.19132286    -7.85876821    -0.05368038     0.36526084    -0.84864916
Ni     -5.77157883     6.68897592    -3.98281677    -0.57506595     0.13039805    -0.01107167
Ni     -1.94952531     0.05689000    -6.00571558     0.57431661    -0.59534569     0.46785620
Mo     -9.78460969     8.72675444   -10.32014914    -0.65362306    -2.12779942     3.16702184
Mo     -9.81631655     8.68668694    -6.22777707    -2.16361587    -1.91396349    -1.85682150
O      -2.09467442     2.00412558    -1.93506605     0.86480891    -0.23012413    -0.37860516
O      -1.97279550     1.87262949    -5.97939838    -0.18924381     0.84131133    -0.59024888
O      -5.80272386     6.90295327    -2.03884306    -0.30432249    -0.46137192     0.63132427
O      -5.81137933     6.96380671    -5.91054994     0.50190456    -0.32645905     0.38208790
O      -5.83376041     2.02507934   -10.00048576     0.13260677    -0.49074305     0.58138675
O      -6.03305670     1.87405324    -5.99821672     0.83546466     0.68659477     0.31484749
O      -9.62095522     6.78585124    -9.86078735    -0.91112223     1.54604055    -0.54277694
O      -9.89371591     6.74538191    -5.91341536     0.52888068     0.21547581     0.78857971
O      -3.92628446     2.42803067    -4.02777278    -0.56331875     0.15972037     0.17155950
O      -3.91917852     2.32810777    -7.81502315    -0.06731220     0.05420329    -0.20232733
O      -7.91927693     2.43818706    -3.90624592     0.33499008    -0.13342824     0.42045223
O      -7.92979594     2.37976342    -7.96039467     0.43863387     0.70185320    -0.32962424
O      -3.80653373     6.30814908    -3.88494020    -0.44371095     0.63300131    -0.25379918
O      -3.93509733     6.26864592    -7.83838775    -0.16754128     0.40362822    -0.61502323
O      -7.81686529     6.41070605    -3.95377152    -0.28127220    -1.10866120    -0.05337281
O      -7.60109822     6.33593939    -7.82118318    -0.40565745     0.53794363    -0.48605339
O      -4.24031724     4.47655987    -1.98105790     0.72575373    -0.67687018     0.22897975
O      -3.98799799     4.50295540    -5.86954239     0.00149786    -0.18175533     0.34564581
O      -7.79760306     4.53337127    -9.86279868    -0.01537518    -0.79875298    -1.40411591
O      -7.92978601     4.34785667    -6.02581438    -0.48012772     0.21849145     1.78293512
O      -7.78381817     8.72067684    -2.02192495    -1.51270098     0.15202298    -0.58611074
O      -8.03549009     8.64580406    -6.00469505     0.22660271     0.09535262     0.22003699
O      -3.91897774     8.65144332    -2.05122409     0.89098972     0.50526341     0.17268314
O     -11.59016345     8.72911464   -10.15680045     1.98232059    -0.14738336     0.43765524
O      -2.00850520     4.30645815    -4.17557036     0.16024653     0.24822649     0.78128353
O      -2.00438068     4.29333432    -7.96358272     0.39523670     0.00676216     0.13748664
O      -5.99774326     4.14417346    -4.15329740     0.07711350    -0.21477961     0.23015719
O      -5.85193731     4.08891751    -7.86499331     0.17646324     0.12001555    -0.19023963
O      -1.84403376     0.30720679    -4.15068947    -0.58306900     0.04901837     0.18606049
O      -5.82584016     8.69674565    -7.87566264    -0.05115806    -0.28058470    -0.21175137
O      -5.87803210     0.33074077    -4.09874909     0.42940898     0.42089146    -1.12442516
O      -5.88037841     0.29921022    -8.09644723    -0.14433863     0.74760749     0.54393546
