# total energy = -630.20095676 eV

CRYSTAL
PRIMVEC
        0.00279571     0.02951795    -7.98606283
       -7.83802570     0.01298533    -3.99532603
       -3.92160916     8.71933433     0.00634407
PRIMCOORD
56 1
Li     -3.78258450     2.08276239    -1.87409049    -0.59630449     0.46475475    -0.51197166
Li     -3.88028366     2.19598186    -6.14944103     0.02141380    -0.06219636     0.49107113
Li     -7.79777459     2.11851663   -10.03985059    -0.11942018     0.14152150     0.32785987
Li     -7.79416237     2.43680860    -5.92364818    -0.20626005    -0.65651453    -0.07848830
Li     -4.00384585     6.32967762    -2.12004534     0.21282088     0.54829804     0.68814011
Li     -3.83965081     6.54631907    -5.96754305    -0.87253641    -0.09284882    -0.03176620
Li     -7.86722677     6.59695027    -9.96534125    -0.37352864    -0.05154361    -0.34857329
Li     -7.95349111     6.43384329    -5.81216769     0.19552323     0.02850621    -0.63851504
Ti     -1.92327613     1.86876158    -4.08399206     0.33507635     1.58319235     0.76016670
Ti     -6.03776517     6.57689091    -7.96013740     1.67172752     0.29702397     0.98069870
Ti     -7.92039445     4.35487236    -7.74367362     0.37524929    -0.40839038    -1.00473105
Ti     -7.88556714     4.30718385    -3.60203124     1.12844993     1.22984110    -2.08328776
Ti     -3.86566683     4.48905930    -7.77620408     0.45419912     0.06207160     0.57126043
Ti     -3.89613421     4.34673910    -3.77667178    -0.60897996     0.02739746    -0.44988609
Ti     -5.99628042     8.69269486    -1.83794396     0.67751237     1.06067923    -0.45531470
Ni     -5.79556204     2.19903023    -7.96769735    -0.16717936     0.10264032     1.19589727
Ni     -5.84242106     2.40929440    -4.11203511     0.85186924    -1.74868357    -0.48194018
Ni     -9.94700683     6.37219629    -8.13797519     1.38546626    -0.04765716     0.28714194
Ni     -9.83086016     6.56605014    -3.99841035     0.17382123     0.33882626     0.49131624
Ni     -1.90029392     2.29737218    -7.93558195     0.05517354    -0.24410453    -0.47802314
Ni     -5.95903459     6.76986376    -4.03471611     0.50987994    -1.11486699    -0.11790111
Ni     -5.87019756     8.70762502    -6.01611244    -0.05796594    -1.32528095    -0.19404690
Mo     -5.95243424     0.13244310   -10.17020032    -0.08815497    -1.39257367    -1.26727629
Mo     -5.93354752     0.03113144    -6.32303920    -0.90189729    -0.23417656    -0.78090828
O      -1.97644832     1.89557189    -2.14432408     0.85144307     0.08795287     1.07325843
O      -1.91002069     1.72848462    -6.02043669     0.19442017     2.41203511    -1.22099362
O      -5.93929542     6.79778795    -2.12242572     0.07196248    -0.01147541     0.99572160
O      -5.91893039     6.93815384    -5.87609658    -0.32273314    -1.10743916    -1.50134590
O      -5.86585680     1.91663374    -9.74430327     0.11469492     0.45790569    -0.47466601
O      -5.87437024     2.01733723    -6.10692554    -0.06783891    -0.34062657     0.52318662
O      -9.87566102     6.82619682   -10.11498802     1.51504844    -0.09993171    -0.24921599
O      -9.81545629     6.87629791    -5.80171009    -0.45830300    -0.12012116    -0.38090567
O      -3.73238912     2.40918846    -4.04407266    -1.59425080     0.05521817    -0.32538175
O      -3.87869462     2.42380602    -8.06393902    -0.37372825     0.84189107     0.98234275
O      -7.73716426     2.37919328    -3.99862128    -0.71988758     0.64464410     0.48137566
O      -7.78579747     2.36413506    -8.05134108    -0.11255153     0.52771785     0.47333096
O      -3.99866706     6.30667303    -4.07895399     0.01478039    -0.30306061     0.67801586
O      -3.93718731     6.50359110    -7.90582395     0.21203985    -1.38847731    -0.93130403
O      -7.76714742     6.31544371    -4.02611723    -1.25119537    -0.60314672     1.07717388
O      -7.92287947     6.40099809    -7.98390802     0.13610518    -0.61645765     0.00139587
O      -3.88776689     4.35180948    -2.00591976     0.14246668     0.42551626    -0.09928409
O      -3.71041345     4.51314060    -6.01892232    -0.42810523    -0.80700718    -0.85416678
O      -7.63015086     4.40410161    -9.87372646    -0.09969275    -0.07850574     0.34718924
O      -7.79768383     4.32004450    -6.00985299    -0.08193416     0.41554861     0.08637959
O      -3.98368685     0.07540050    -9.84619807    -0.01098274    -0.40885903     0.03251110
O      -4.12842926     0.07264562    -6.16434425     0.42001945     0.19775154     0.14993880
O      -7.80520518     0.04208663    -5.97897265     1.49155308     0.30350171    -0.80907480
O     -11.66037415     8.66546494   -10.02936877     0.17616860     0.94035518     0.30458019
O      -9.76027581     4.36068951    -8.17412788    -0.31755604     0.82438686     0.75803971
O      -9.72472004     4.32275959    -4.06816593    -0.25861216    -0.20393057     0.40264875
O      -5.81064287     4.20312091    -4.17073594    -0.51726445     0.32493401     0.55010909
O      -5.78430949     4.75091175    -7.89586676    -1.28686568    -0.37191507    -0.26428819
O      -2.10749084     0.10530392    -3.96893081     0.25640543    -0.89376076    -0.15394158
O      -5.58861216     8.53092508    -8.03663250    -1.60468261    -0.08319429     0.59573446
O      -5.78494415     0.31679751    -3.97595232    -0.10860890     0.25068634     0.04166391
O      -9.90194588     8.18742366    -8.10891354    -0.25887264     0.17038529     0.75133234
