# total energy = -630.69359279 eV

CRYSTAL
PRIMVEC
        0.00279571     0.02951795    -7.98606283
       -7.83802570     0.01298533    -3.99532603
       -3.92160916     8.71933433     0.00634407
PRIMCOORD
56 1
Li     -3.94061576     2.31719583    -1.95496811     0.20691476    -0.09471687    -0.30858982
Li     -4.03504019     2.13394152    -5.90208939     0.18429717     0.31068809    -0.01019311
Li     -7.86048049     2.30914266    -9.91830794    -0.05440700    -0.19418534    -0.29642871
Li     -7.93431147     2.21433784    -5.84336197     0.51019813     0.11973906    -0.40890609
Li     -3.83613739     6.55746518    -1.86776129    -0.09066943    -0.29600197    -0.65077853
Li     -3.93963138     6.35465827    -5.97946812     0.23988023    -0.07336637     0.69602619
Li     -8.00991946     6.69584786    -9.85469572     0.63229051    -0.31995183    -0.18687751
Li     -7.88989216     6.25547253    -5.88227257     0.04319687     0.22982499     0.16894915
Ti     -1.89995641     2.27578893    -3.94825229    -1.13964091     0.24329299    -1.12665384
Ti     -5.81764047     6.75457755    -7.90641068    -0.34521996    -1.23201181    -0.83499057
Ti     -7.73758030     4.40323842    -7.75861476    -0.03743670    -0.23758725    -0.87203616
Ti     -7.77912409     4.43309439    -3.66281872    -0.17777210     0.19796362    -1.02454268
Ti     -3.68356694     4.32102685    -7.77213918    -0.85524231     0.17269909     2.11211658
Ti     -4.01311903     4.40667708    -3.81941146     0.13445722    -0.21281439     0.08286648
Ti     -5.94370100     8.61119893    -2.23636756    -0.58350241     0.07037573     0.55051366
Ni     -5.84176080     2.30648401    -8.08673258    -0.12028965     1.16528720     0.26902116
Ni     -6.15099357     2.25605819    -3.92125369     2.79345823    -0.77690473    -0.80470704
Ni     -9.83374006     6.42559751    -7.88589797     1.26902887     1.09359021    -0.60884230
Ni     -9.83864580     6.59049356    -4.01022446     1.07956046    -1.03168549     0.05709232
Ni     -1.96613976     2.16475004    -7.85446956     0.08442417    -0.30674225    -0.42114827
Ni     -5.85670378     6.65408867    -4.02160345    -0.24380929     0.16717004     0.21096880
Ni     -6.01637067     8.61966383    -6.02483351     0.37111128     0.86852808    -0.04212881
Mo     -9.87593134     8.73041789   -10.28962745     0.11380255    -0.14932518     0.78491194
Mo     -5.88254661     0.02584152    -6.38611853    -0.53873127    -0.44270707     0.12513610
O      -1.93675176     1.87510552    -2.06311788    -0.23036578    -0.56742549     0.03106351
O      -2.01731770     1.80154600    -6.01523746     0.10281316    -0.89879044     0.32932567
O      -5.82748698     6.69355968    -2.05783549    -0.16164800     1.24519832     0.76537205
O      -5.99620289     6.71144329    -6.00227462     0.64905432     0.82212860     0.32475825
O      -5.82934048     1.98826337   -10.04447733    -0.55675581     0.24492990    -0.52955675
O      -5.95739104     1.89892855    -5.82747978    -0.69433208     0.26977757    -0.18728469
O      -9.87304151     6.84310578    -9.79827039     0.42701233     0.80986633    -0.03677895
O      -9.69536251     6.77081463    -6.06712852    -0.66216660     0.61682206     0.58481512
O      -3.99937151     2.44152379    -4.02299039    -0.03131073     0.12356702     0.56483257
O      -3.81841364     2.47304571    -8.01531551    -0.69509823    -1.06261710     0.21018265
O      -7.96373117     2.41597232    -4.00828294    -0.19305036     0.70662094     0.88095697
O      -7.86045751     2.39911748    -8.01306449     0.46554728    -0.43028214     0.28993152
O      -3.76666324     6.46101635    -3.92977196    -1.20560292    -1.21123027    -0.02636762
O      -3.86563081     6.24342959    -7.94376408    -1.81667130     1.64113293    -0.15941814
O      -7.99879081     6.40125272    -3.86023277     0.71629715     0.10127767    -0.50256119
O      -7.80308626     6.33370666    -7.96083455     0.24922868     0.14140600    -0.08023007
O      -3.82721753     4.31857776    -2.05759624     0.01105592     0.32944512     0.29948338
O      -3.82434998     4.41366452    -5.89425248    -0.16805789    -0.11579044    -2.29824239
O      -7.91330218     4.32507288    -9.93483895     0.10824244    -0.24487805     0.66064899
O      -7.93867451     4.33874513    -6.03418039     0.08640885    -0.16599746     1.08227346
O      -7.85603602     8.74815351    -9.92817258     0.27323786    -0.40505503    -0.30847035
O      -4.11105164     0.13449304    -6.10757478     0.61767059    -0.65063396    -0.21983664
O     -11.63849394     8.65043313    -5.96611345    -0.33102673    -0.07203263    -0.41532594
O      -7.66890689     0.10574377    -9.96947897    -0.55332970    -0.21074435    -0.71811206
O      -1.91670782     4.08270036    -4.12620831    -0.60268576     0.32588464     0.53321612
O      -9.71396279     4.65052092    -4.00279952    -0.52017718     0.17378146    -0.22000793
O      -5.91697076     4.82411313    -3.99626348     0.25698862    -0.60136959    -0.15633650
O      -5.88366033     4.25411537    -8.04798745     1.30039384    -0.11807822     0.18371159
O      -5.86463251     8.65793477    -4.10501049    -0.21044950     0.16425835     0.86115932
O      -5.67946081     8.52669523    -7.98734030    -0.58600413     0.04720342    -0.08238664
O      -9.74872865     8.60243232    -4.09523639    -0.18591049    -0.80223889     0.26985635
O      -5.98974426     0.49167672    -8.16198056     0.64535568     0.04384662     0.73095449
