# total energy = -630.27834503 eV

CRYSTAL
PRIMVEC
        0.00279571     0.02951795    -7.98606283
       -7.83802570     0.01298533    -3.99532603
       -3.92160916     8.71933433     0.00634407
PRIMCOORD
56 1
Li     -3.94480439     2.38352735    -2.03442193     0.14977993    -0.09025046     0.57452876
Li     -4.05169971     2.47158932    -5.93791787     0.05042712    -0.26044210     0.12955316
Li     -7.85904337     2.10970653   -10.10098827     0.30626435     0.14863963     0.44328802
Li     -7.92167205     2.12229544    -6.00474205     0.49636967     0.42734720     0.35181342
Li     -3.95949052     6.41250766    -1.87715583    -0.88928531    -0.06431284    -0.46084700
Li     -3.86663171     6.60682963    -6.03621865    -0.17746273    -0.07536666     0.61978370
Li     -7.93879590     6.38266489    -9.87365239     0.44530058     0.01392897    -0.51496537
Li     -7.98379218     6.49166630    -5.84694326    -0.07726783    -0.18421805    -0.69239840
Ti     -1.99320661     2.19897758    -4.02064091    -0.85584081     0.50766490    -0.45119478
Ti     -5.90343818     6.64405580    -7.84201487    -0.16137615     0.28802817    -0.81480620
Ti     -7.85196850     4.39307224    -7.76656127    -0.31633668     0.19047143     1.17058623
Ti     -7.78622776     4.38134529    -3.81693867     0.15070175     0.15849221     0.03476334
Ti     -3.72429197     4.34136771    -7.69435806    -0.89807484     0.51234573    -0.21778366
Ti     -3.97003723     4.54870262    -3.71122190     0.73600056    -1.15794112    -0.22969820
Ti     -5.69016327     8.62473214    -2.07626339    -1.19826238    -0.03087089    -0.52957286
Ni     -5.89952133     2.41586524    -7.99435500    -0.71054894     0.22916354    -0.20590656
Ni     -5.85887246     2.17057643    -3.96237623    -0.44420871    -0.33791330     0.47976491
Ni     -9.91351404     6.69351682    -8.00422265    -0.05123760    -0.27286928     1.23707063
Ni     -9.91168686     6.46078792    -4.01390217     0.96152015     0.41852630    -0.44352145
Ni     -1.87053500     2.09925651    -8.06189204    -0.55091688    -0.00137338     0.89612214
Ni     -5.97631813     6.61143502    -4.10933383     0.15922641    -0.19257478     2.07348823
Ni     -1.95185094     0.04537348    -6.00607943     0.05810877    -1.65404637     0.84074294
Mo     -9.72426202     8.72820101   -10.23511195    -0.97888701     0.28452085    -1.75338102
Mo     -9.75963936     8.69362098    -6.33122547    -0.13449766    -1.24693179     1.46860691
O      -2.03525873     1.90598481    -1.96301398     0.52646492    -0.28782480    -0.17533915
O      -1.91718461     1.80109537    -5.97553595    -0.26937635     1.32408323    -1.11616938
O      -5.90035682     6.75250118    -2.03132302    -0.60904485     0.24268909     0.24334124
O      -5.97509856     6.91216677    -5.91769183     0.64572944    -0.29843330    -0.91060283
O      -5.79468388     1.95857034   -10.01994059    -0.82548987     0.12713469    -0.56845809
O      -5.97851119     1.84118273    -5.84112166     0.36840913     0.24611472     0.27344650
O      -9.77456334     6.74235369    -9.81425061    -0.28200778     0.86981673    -0.36465058
O     -10.09941305     6.73850355    -6.12776358     2.78593122     1.00801636    -0.10961060
O      -3.99297789     2.29061867    -4.01172573     0.93132092     1.13278328     0.25094358
O      -4.00841504     2.49032990    -7.93919962     0.84544510    -0.55966604    -0.00729037
O      -7.75078966     2.42156690    -4.01576462    -0.78108486    -0.41898656    -0.01968477
O      -7.85867176     2.48469872    -7.95135724     0.17857503    -0.79913531    -0.27012176
O      -4.00789825     6.43416909    -3.88690901     0.23885914     0.17181258    -1.20459298
O      -4.01155585     6.30021480    -8.05402278    -0.07445945     0.26185085     1.51455315
O      -7.95362565     6.39077967    -4.04689959     0.68097980    -0.39014262     0.73237982
O      -7.78743710     6.38720831    -7.92732413    -1.15991471    -0.34428238    -0.07781861
O      -3.78520702     4.45044962    -1.94055475    -0.33265994    -0.75674107    -1.07453963
O      -4.02481330     4.45672470    -5.93494767     0.12555469    -0.02725177    -0.36485876
O      -8.00195440     4.42002981   -10.07037148     0.37484084    -0.08093109     0.96448905
O      -7.93756433     4.38041295    -5.95364317    -0.21398215     0.21755835    -1.50404081
O      -7.94055798     8.74715622    -9.98979470    -0.54487215    -0.44044898     0.03636599
O      -8.04851946     8.57570766    -5.98593994     0.35665447     0.17126675    -0.51286844
O      -3.91176625     8.62492055    -2.17859771    -0.05177962     0.70922704     1.00135183
O     -11.61599863     8.66700343    -9.97890350     0.63260453     0.33267037    -0.12933521
O      -1.96942992     4.11052163    -4.29321495    -0.74527379    -0.55356664     1.42329083
O      -9.76651688     4.65993505    -4.00494923    -0.46919938    -1.07891866     0.04159657
O      -5.85898100     4.48426104    -3.82334718    -0.19327008     0.07602630    -0.79544538
O      -5.94069410     4.33491821    -7.99403452     0.32207398     0.34305507    -0.15490768
O      -1.96823470     0.21151643    -4.00456676    -0.20645827    -0.07418179    -0.05402697
O      -5.94814894     8.50649209    -7.95114167     0.43457429    -0.31975911    -0.51834606
O      -9.91173918     8.24512187    -4.09358982     0.14166147     1.50556785     0.88204458
O      -6.05099144     0.60553720    -7.99356827     0.90734480    -0.33105541    -1.53573489
