# total energy = -630.62934911 eV

CRYSTAL
PRIMVEC
        0.00279571     0.02951795    -7.98606283
       -7.83802570     0.01298533    -3.99532603
       -3.92160916     8.71933433     0.00634407
PRIMCOORD
56 1
Li     -3.83866012     2.19003770    -1.93119740    -0.73946522     0.07494986    -0.47490200
Li     -3.73887415     2.25437426    -6.19166874    -1.29217314    -0.30193272     0.79972565
Li     -7.83666253     2.46614076    -9.97571776     0.01235428    -0.69442192     0.05297458
Li     -7.94325237     2.35073510    -5.69369810     0.43576180    -0.17074384    -1.83387662
Li     -3.89712060     6.59971695    -1.85088723     0.25224006    -0.28095063    -0.36999805
Li     -3.92766676     6.37000125    -5.83739944     0.03862925     0.06879824    -0.69568928
Li     -7.70701283     6.62412497   -10.06365071    -0.25531928    -0.40059491     0.43166199
Li     -7.95511287     6.54652687    -5.92905118    -0.01912814     0.23846382     0.06676883
Ti     -1.96370237     2.32978112    -3.98562512    -1.10395823    -0.02513109    -0.73989846
Ti     -5.85302029     6.75552311    -7.84536205    -0.07936790    -1.00670197    -0.08957191
Ti     -7.73974882     4.40266003    -7.70883041     0.47913811     1.30235084    -0.03275017
Ti     -7.89244499     4.33565184    -3.72899551     1.00476251     0.90504310     0.30759223
Ti     -3.87538548     4.30457496    -7.76296129    -0.65816659     0.99990083     0.68314636
Ti     -4.02530621     4.39899030    -3.72794457     0.67169983    -0.02360111    -1.02283414
Ti     -2.10321862     0.03607164    -2.18192745     1.05097567    -0.88633947    -0.14279694
Ni     -5.90278239     2.05846080    -8.03295080     0.05243383     0.84705468     1.84206678
Ni     -5.87632726     2.19392473    -3.97638125     0.02594810     0.94602284    -0.68659107
Ni     -9.79504631     6.43147618    -8.05352858     0.43588816    -0.13989081     0.67849923
Ni     -9.78265685     6.50217455    -3.91479897    -0.11131021     0.27204238    -0.63903487
Ni     -1.91555782     2.13859971    -7.98016365    -0.99224470     0.35550845    -0.24290992
Ni     -5.90928035     6.56213143    -3.97209979     0.51080774     0.28438641    -0.20417620
Ni     -2.06083415     0.12979140    -5.98017076     0.40600331    -1.88586042    -0.01335126
Mo     -9.83680536     8.66981401   -10.26504883    -1.53127490     0.08988818    -0.42484196
Mo     -5.94490357     0.17167865    -6.33527261     0.59473427    -1.56763517     0.22016809
O      -1.98382737     1.98631665    -2.08086664     0.29908378     0.23357674     0.51458961
O      -1.98288421     1.88710943    -6.08061773     0.56850455     0.74692089     0.44879268
O      -5.75934621     6.83564341    -2.05293657    -0.86463376     0.24106799    -0.01412374
O      -5.85298436     6.94145728    -5.88106308    -0.62620267     0.21080821    -0.79041084
O      -5.94990534     1.82767705    -9.78655231     0.96001320     0.68177530    -1.22899738
O      -5.90778924     2.03634193    -6.07568247    -0.27036927     0.36911624     0.04465099
O      -9.70173058     6.75888455   -10.00065515    -0.17099725    -0.17167908    -0.51461304
O      -9.87556312     6.92087353    -5.80808991     0.32981678    -0.11226241    -0.10400169
O      -3.95596372     2.35583367    -4.06229727     0.82273914     0.59455076     1.05028800
O      -3.93995815     2.41333413    -8.11654263    -0.21980258    -0.85820553     0.54063729
O      -7.91107977     2.36547778    -3.98288529     1.35658045    -0.09471089     1.34146451
O      -7.92309333     2.52524000    -8.02472415     1.11609695    -1.40285626     0.04835995
O      -3.85746334     6.31630572    -4.04850449    -0.50831906     0.09090274     0.35836514
O      -3.87154946     6.30239188    -7.83302285    -0.09965071     0.66951493    -0.08367993
O      -7.87995653     6.30885008    -4.05884515     0.43345025    -0.25901518     0.83869955
O      -7.81134809     6.36554281    -8.02282579    -0.20750337    -0.06497104     0.67157829
O      -3.82725104     4.51535947    -2.02184105     0.23382249    -0.71482534     1.68686803
O      -3.84496161     4.12672164    -5.98351687    -0.24794517     1.06811809    -1.37545921
O      -7.80050975     4.32769605    -9.93937666     0.08733956     0.38695565    -0.80690116
O      -7.87487244     4.27997257    -5.94230260     0.22630964     0.40968562    -0.70718868
O      -3.93282783     0.00814182    -2.14259159    -0.46780493    -0.09781470     0.27366611
O      -4.10417166     0.10956566    -6.02877044     0.01106189     0.04913364    -0.29703877
O      -7.79200724     0.09160749    -6.10614252     0.86894307     0.43667869     0.09005314
O     -11.59625719     8.74396629   -10.06711630    -0.03811565    -0.63124597    -0.08803398
O      -1.98000355     4.37326496    -4.12499562     0.64871884    -0.48887171     0.56997532
O      -1.91060720     4.23979334    -7.94030434    -0.99548552     0.05473107    -0.38748062
O      -5.82992129     4.32218040    -3.98077114    -2.25209723    -0.86697370    -0.26940813
O      -5.86082088     4.73596822    -8.05747050     0.24742431    -0.05791784     0.65449396
O      -1.90979682     0.30607133    -4.02945395    -0.09020066     0.72003746    -0.38148628
O      -5.95256889     8.60135894    -8.09211165     0.37235865     0.27791301     0.57098182
O      -5.81992167     0.27648714    -4.07901992    -0.39056970     0.49699694     0.17825168
O      -9.69568178     8.26306424    -8.08709761    -0.49343856     0.07334104    -0.15358345
