# total energy = -630.97103104 eV

CRYSTAL
PRIMVEC
        0.00279571     0.02951795    -7.98606283
       -7.83802570     0.01298533    -3.99532603
       -3.92160916     8.71933433     0.00634407
PRIMCOORD
56 1
Li     -3.81988627     2.03243390    -1.81751688    -0.67672091     0.09637162    -0.46521658
Li     -4.00396025     2.38434334    -5.99869083    -0.13765479     0.10738202     0.06062106
Li     -7.70726114     2.20112821    -9.91529098    -0.51466675     0.10188851    -0.22301973
Li     -7.93689027     2.34657853    -5.81358957     0.29361893    -0.17047913    -0.16211490
Li     -3.83337891     6.71265829    -1.99710733    -0.26452818    -0.09467425    -0.10560160
Li     -3.89156742     6.57097538    -5.74706697    -0.58152421    -0.08317558    -0.81703699
Li     -7.88871301     6.55096288   -10.00896090     0.19404880     0.00541556     0.04815363
Li     -7.80341099     6.46187059    -5.77294611    -0.15806755     0.08187484    -0.55073067
Ti     -1.94644972     2.31962587    -4.13638591    -0.99273320    -0.43986438     0.79275922
Ti     -5.91307420     6.70877416    -8.01282682     0.37421799    -0.27553653     0.32328249
Ti     -7.82646281     4.42427759    -7.70030818     0.91941563     0.70486794    -0.40052146
Ti     -7.83439894     4.28962389    -3.74407892    -1.15168657     0.06699954     0.29305866
Ti     -3.86170822     4.44541100    -7.80449385     0.36525958    -0.70989895     1.21075398
Ti     -4.03000514     4.42390258    -3.65127442    -0.64351446    -0.26745124     0.24986030
Ti     -1.82545793     0.08383787    -2.16133506     0.37595639     0.38366670     0.37590395
Ni     -5.93570151     2.15544415    -7.91660021     0.91119993     0.18016203    -0.69711035
Ni     -5.91271477     2.22405384    -3.91058695    -0.02854663    -1.63116016    -0.54552946
Ni     -9.77094677     6.40080454    -8.07790753    -0.97784637    -0.29332920     0.71767864
Ni     -9.90400448     6.62216624    -4.03178272     1.22935403     0.26942215     0.33201542
Ni     -1.99810073     2.00833500    -7.88486120    -0.31944333     1.24448411    -1.21577118
Ni     -5.92307326     6.64792235    -3.92660376    -0.16840198    -0.08204448    -0.94903000
Ni     -1.89439115     0.08877595    -6.01982737    -0.11435192     0.03369618     1.02690807
Mo     -9.80952843     8.62505367   -10.28137401     1.07328558     0.90959072    -1.01655482
Mo     -5.79159408     0.13288641    -6.37342147    -1.40184952     0.51156838    -0.45911824
O      -1.94507178     1.95831324    -1.87412403    -0.40222928    -0.21288004    -0.07281417
O      -1.91592190     1.97162108    -5.96175606    -0.39013003    -0.67221592    -0.56948950
O      -5.85447509     6.86191864    -2.05253006    -0.34906097    -0.44729378     0.40550415
O      -5.83484002     7.02777866    -5.93113792    -0.61585138    -1.17320483     0.04250393
O      -5.89562224     1.81529122    -9.81076237     0.33935079     0.08990364     0.10751903
O      -6.00932559     2.08182950    -6.09019763     0.88298003    -0.97178365     0.94153383
O      -9.84802893     6.67057359   -10.11300460     0.25473441     0.10092210     0.05504960
O      -9.78247944     6.97748286    -5.89095585    -0.31481367    -1.02087885     0.34837523
O      -3.83132934     2.44752219    -3.92892264    -0.61371691     0.20839536    -0.19797079
O      -3.98688918     2.31089342    -7.98765709    -0.71665012     1.01678018     0.75864126
O      -8.00446059     2.20095596    -3.89087772     1.96676143     0.95479210    -0.26433799
O      -7.88848091     2.47854650    -7.93587556     0.54728662    -0.33398342     0.00462186
O      -3.97031998     6.31862321    -3.94323597     0.17785521    -0.19886510     0.21998919
O      -3.92382458     6.46391907    -8.04109778    -0.17844647    -0.77772373     0.41585930
O      -7.89425296     6.28788347    -3.94043908     0.17076180    -0.24345478     0.20504422
O      -7.89360064     6.38901491    -7.96795375     0.05111228    -0.01116975    -0.25623985
O      -4.08439775     4.40718421    -1.88431342    -0.16903541    -0.21112874    -0.64246874
O      -4.13972154     4.33030968    -5.99554547     0.58605546     0.44494963    -1.58776166
O      -7.93049259     4.16583455    -9.99015013     0.18531232     0.80598607     0.68932652
O      -7.75455365     4.40541599    -5.96033972    -0.44499564    -0.12280875     0.17790634
O      -7.88678480     8.69254466    -2.03845900    -1.76992406    -0.46813543    -0.01635734
O      -4.07004004     0.12500861    -6.31596780     1.80377642     0.55433339     0.63869601
O      -7.78198627     0.16050912    -6.24497625    -0.20584660    -0.61949088     0.59948824
O     -11.61059995     8.66171679    -9.96564700     0.29291677     0.24182901    -0.43287023
O      -2.03926851     4.37868594    -3.90269950     0.53730468     0.06738737    -0.39718168
O      -1.97227162     4.00805936    -8.06230442    -0.79162895     0.23842192     0.36924973
O      -5.98694293     4.03686459    -4.02917411     1.20676917     0.29880506     0.56717842
O      -5.96817080     4.80049764    -8.06310748     0.66119071    -0.39150967     0.24431146
O      -2.05113086     0.34282420    -3.97146846     0.07746826     0.49789018    -1.35863216
O      -5.77620938     8.59844939    -8.02050257    -0.28812567     0.72969610     0.03322539
O      -5.76307888     0.28111487    -4.16484127    -0.54656965     0.56113049     1.01871622
O      -9.87908117     8.21737184    -8.12759824     0.38237710    -0.20288576     0.05050698
