# total energy = -631.10211170 eV

CRYSTAL
PRIMVEC
        0.00279571     0.02951795    -7.98606283
       -7.83802570     0.01298533    -3.99532603
       -3.92160916     8.71933433     0.00634407
PRIMCOORD
56 1
Li     -3.73202116     2.63175705    -1.96135130    -0.29436117    -0.77417782     0.48104733
Li     -3.94507497     2.42950382    -5.94152512     0.04979406    -0.26380292    -0.22018457
Li     -7.98279759     2.22859051    -9.93576646     0.81215864     0.35368532    -0.60121431
Li     -7.65561284     2.05520915    -6.03612528    -0.50544435     0.05946084     0.41670927
Li     -3.92695842     6.45636079    -1.92032416    -0.42046246     0.26410869     0.07338773
Li     -3.94877280     6.61634514    -5.71136284     0.00516088    -0.22263257    -1.56557537
Li     -7.91950584     6.32673764    -9.84341674    -0.10766908     0.02927795    -0.40549935
Li     -7.95669513     6.53388800    -5.80516787     0.55289616    -0.14064444    -0.31902893
Ti     -1.94640092     2.27053673    -4.04487144    -0.27399168     0.30246303     0.57392751
Ti     -5.88817751     6.61488328    -7.92644400     0.28783542     0.56021161     0.39344148
Ti     -7.74004385     4.34676265    -7.63312376    -0.94107719     0.27703221    -1.19756582
Ti     -7.80203049     4.32476781    -3.75261069    -0.55724319    -0.44473300    -0.50684874
Ti     -3.84271762     4.36020009    -7.69327831     0.24409664     0.21187010     0.69473693
Ti     -4.00176193     4.47018834    -3.74895520    -0.03274885    -0.05252659    -1.50871368
Ti     -2.18133142     0.01427621    -2.18844279     0.69303367    -0.00962273     0.71136155
Ni     -5.81484391     2.35480554    -8.08501030    -0.05221830    -0.63869131     0.84314060
Ni     -5.81561744     2.13000342    -4.09012818    -0.25748060    -0.15712513     0.51796363
Ni     -9.83054407     6.60348713    -7.95700575    -0.06691421    -0.19906871     1.00137512
Ni     -9.82779486     6.46365404    -3.97489630     0.14711411     0.13117378     0.50240942
Ni     -1.82202608     2.06118981    -8.04092427    -0.37631833     0.15865063     0.15948429
Ni     -5.87488594     6.57435833    -3.93843231    -1.11236824    -0.20179192    -0.08002415
Ni     -2.06922916     0.02248389    -6.03512768    -0.12351713    -1.96676592    -0.10925728
Mo     -6.01844664     0.17722563   -10.26021959     2.02520866    -0.98471390    -1.61466667
Mo     -9.80270651     8.58205660    -6.35825930    -1.38667798     2.24015544    -0.39334354
O      -1.84447706     2.01964743    -1.95670855    -0.56099422    -0.90999403    -0.98472993
O      -1.96691200     1.78935359    -6.17169030    -0.26407073     1.41702874     0.94165494
O      -6.03448141     6.75201707    -1.92548589     1.00958319     0.70409171    -0.81766685
O      -5.93635098     6.79685047    -5.95065570     0.01995489     1.06139684     0.42793195
O      -5.82146146     2.03233461   -10.08164172    -0.10189877     0.44555085    -0.18277018
O      -5.76242439     1.90949184    -6.01634094    -0.16451838     0.05594630     0.77365180
O      -9.78141484     6.96627730    -9.76288486     0.10843857     0.50756706    -0.50395649
O      -9.90518800     6.76308451    -6.02561572     0.31822687    -1.92095070     0.14791062
O      -3.93130600     2.45225338    -3.92424925     0.33346912     0.22198170    -0.56279945
O      -3.79914371     2.47342555    -7.93388642     0.03526570    -0.48780139    -0.81466809
O      -7.69721602     2.27064775    -4.07119869    -0.67655814     1.04120198     0.59196751
O      -7.87288396     2.44916491    -8.01951646     0.54202931    -0.70499525    -0.17576760
O      -3.93544407     6.47291959    -3.97752619     0.56728526    -0.64200744     1.10980251
O      -3.94709787     6.31755492    -7.82401223    -0.53671812     0.73045803    -0.91750946
O      -7.82593448     6.31943744    -3.93666559    -0.59248715     0.03051661     0.11106275
O      -7.87411818     6.27931520    -7.90182257    -0.01875266    -0.06492868     0.01373955
O      -4.05846693     4.51038534    -2.01312794     0.56585675    -0.09052417     0.91286815
O      -3.93004349     4.43559934    -5.93479631    -0.21566489    -0.19181476     0.63022103
O      -7.85339920     4.32886791   -10.00157341    -0.29460483    -0.29896860     0.75843678
O      -7.77998608     4.31979774    -5.92451870    -0.40133102     0.02592196     0.88638540
O      -3.93325043     0.13700379    -2.03087194    -0.65712233    -0.05028051    -0.10684671
O      -8.03061614     8.55591888    -6.09131194     0.60681065     0.19959208     0.35300748
O      -7.73952049     0.06280659    -6.00608362     0.76344700    -0.60175876    -0.41332448
O      -7.70962731     0.14117813   -10.04664966    -1.92063635    -0.11060860     0.38293004
O      -1.95683980     4.16577537    -4.02080621    -0.25658130    -0.02633636     0.22085096
O      -9.83089229     4.57871779   -11.93384978     1.09526422     0.62010770    -0.57167211
O      -5.93400076     4.63563711    -3.95934076     1.22934440    -0.32411309    -0.42915004
O      -5.86000813     4.22736181    -7.99228825     0.22501635     0.92873061    -0.08675793
O      -1.97397403     0.32462236    -4.07011444    -0.15046738    -0.81524168     0.09895251
O      -5.93979491     8.41027430    -7.97833886     0.10527285     0.71529432     0.11593317
O      -9.88189284     8.36511536    -4.07384236     0.56884596     0.08964147     1.20924491
O      -5.89087517     0.53980827    -8.09400478     0.21568615    -0.21465440    -0.93456776
