# total energy = -630.95505298 eV

CRYSTAL
PRIMVEC
        0.00279571     0.02951795    -7.98606283
       -7.83802570     0.01298533    -3.99532603
       -3.92160916     8.71933433     0.00634407
PRIMCOORD
56 1
Li     -3.75745548     2.46139656    -1.92831676    -0.39362049    -0.14684927     0.19566365
Li     -4.03760435     2.13145804    -6.00007875     0.89146685     0.00416729     0.23099907
Li     -7.73268030     2.63530360    -9.86559241    -0.44138486    -0.42118061    -0.64147785
Li     -7.70016416     2.35092530    -5.89700952    -0.53360025    -0.24379133     0.03596848
Li     -3.90964216     6.30586347    -1.92205839     0.12761203     0.12075319    -0.41506232
Li     -3.98311648     6.60072120    -5.74899456     0.02556574    -0.14483506    -0.88587998
Li     -8.05007180     6.35730877    -9.84742028     0.35509549     0.11214151    -0.78438381
Li     -7.91305412     6.87761450    -6.03621927     0.15806860    -0.97376077     0.52505779
Ti     -1.86324667     1.97689376    -3.93637243    -0.20887486     1.47830554    -0.26081597
Ti     -5.82015770     6.67283898    -7.91871266    -0.54854901    -1.11493124     0.41370569
Ti     -7.83401164     4.38618417    -7.72484516    -0.18036002     0.04420118    -0.14893609
Ti     -7.69360355     4.41937997    -3.88695380    -0.21933117     0.74344614    -0.13903369
Ti     -3.70210709     4.37974167    -7.59628033    -0.05983877    -0.55849633    -2.42220580
Ti     -3.83707094     4.27808259    -3.77455504    -0.34885240     0.54162335    -0.13892373
Ti     -6.20668052     8.59513405    -2.03456608     0.47075542     0.43311632     0.75966583
Ni     -5.78834320     2.49877996    -8.12791226    -0.73164648    -0.40304857     0.30827063
Ni     -5.86424898     2.13898277    -3.90324707    -0.21761107     0.20897711    -1.01455944
Ni     -9.79759009     6.57999116    -7.96360043    -1.48523251     0.25442421    -0.11867682
Ni     -9.82466371     6.46906115    -4.08663885     0.56580943     0.08152921    -0.57318427
Ni     -1.88518975     1.99733018    -7.92782998     0.09508548     0.49293065    -0.00379826
Ni     -5.85503976     6.50172253    -3.92252552    -0.16999358     0.19541894    -0.83691928
Ni     -6.03854298     8.69970549    -5.92542248     0.69391833    -1.55221456    -0.69328884
Mo     -6.11343672     0.10594085   -10.31502535    -0.27155378     0.36724382     1.04595498
Mo     -5.96069213     0.15245971    -6.41298266     0.57843489    -1.34665362     0.28525605
O      -1.89687810     1.98466867    -2.05364009    -0.35634724    -1.45707069     1.03989711
O      -2.03402800     1.76904411    -6.04803241     0.14654375     0.67206149     0.09611902
O      -5.83237733     6.69915820    -1.94711637    -0.47857294     0.69924951    -0.32242613
O      -5.93121340     6.75281966    -5.97357716    -0.06008359     0.88935617     0.11580076
O      -5.87734560     2.06210924   -10.07397634     0.16435465    -0.47851872    -0.20314997
O      -5.84254510     1.93167471    -5.75776558     0.06638001     0.23710159    -0.05252472
O      -9.87193883     7.04951396    -9.74352743     0.30584117    -0.58764773    -0.44091068
O      -9.81604885     6.88841453    -6.21481601    -0.16874607     0.14261983     2.00638909
O      -3.93681849     2.29855731    -3.97169745     0.14283518     0.40199589     0.35332850
O      -3.89189833     2.48149074    -7.98323993     0.54796549     0.09515461     0.10317142
O      -7.78528438     2.44365989    -3.95552237    -0.13765674    -0.54735946     0.20243762
O      -7.79537242     2.34883178    -7.92893237     0.12954957     0.93382646    -0.77133345
O      -3.87943797     6.32727736    -4.01467940     0.53827763    -0.23401524     1.21066269
O      -3.97477379     6.30784785    -7.93975192     0.85929147     0.55909360     0.13373648
O      -7.88053769     6.41289872    -4.07002123    -0.00599456    -0.63197433     0.22155057
O      -7.92014953     6.33505319    -7.98321395     0.85018274    -0.41965692     0.26843380
O      -3.80973810     4.41521876    -2.00611949    -0.28827030    -0.25650348    -0.40356826
O      -3.81563172     4.42699206    -5.90193579    -0.05207853    -0.04768056     1.30097849
O      -7.76344965     4.47749531   -10.11324849    -0.16250668    -0.22976935     1.32277209
O      -7.90587012     4.27193498    -5.99975684     0.06909412     0.16403388     0.09692403
O      -7.97106798     8.70952056   -10.05369057    -0.36102670     0.32943035     0.35418018
O      -7.94169231     8.65343303    -6.09668583    -0.63023255     1.29047860    -0.11756833
O      -7.68512150     0.13981680    -6.03268599    -0.15870448    -0.48087684    -0.35798070
O      -0.02763968     0.02858587    -5.95020733     0.27039033     0.31667590    -0.61398740
O      -1.96774884     3.98935494    -4.06256998     1.15815341    -0.22555441    -0.20657577
O      -9.69976663     4.54972085    -4.02969362    -0.63382409     0.76958716     0.05644474
O      -5.78207385     4.60989513    -4.21417298    -0.44601946     0.02383041     0.80354598
O      -5.85746651     4.36632372    -8.01177005    -0.10184819     0.46226929     0.30570081
O      -2.01433943     0.05999478    -3.86990432     0.34889812    -0.16427461    -1.03183244
O      -5.86389466     8.47588122    -8.03023412    -0.10106733     0.67474852    -0.44986837
O      -9.90217820     8.42065648    -4.08089921     0.07348376    -0.73866804     0.11924339
O      -5.91041724     0.71295707    -8.15108909     0.44793412    -1.08126826    -0.00244845
