# total energy = -630.28945697 eV

CRYSTAL
PRIMVEC
        0.00279571     0.02951795    -7.98606283
       -7.83802570     0.01298533    -3.99532603
       -3.92160916     8.71933433     0.00634407
PRIMCOORD
56 1
Li     -4.12415179     2.10270524    -2.08299092     1.24549265     0.47245905     0.34141165
Li     -3.94421985     2.55678958    -5.91095278    -0.01644308    -1.32868256    -0.65979698
Li     -7.79585707     2.08692580    -9.98183939    -0.12865778    -0.02671353    -0.45463612
Li     -7.82512970     2.50943654    -6.02116213     0.24991879    -0.28178859     1.02806073
Li     -3.87116045     6.40688194    -1.93930904    -0.65277136     0.05875185    -0.06465960
Li     -3.92311843     6.71188708    -5.90919752     0.01455535    -0.41106107     0.24483961
Li     -7.85635017     6.50005430    -9.92542450    -0.00574392     0.11762428    -0.33544515
Li     -7.98547902     6.27350772    -5.85530303     0.50125768     0.77452073     0.04018704
Ti     -1.88242770     2.30465197    -3.91425525    -1.18784215    -0.97648237    -0.48651001
Ti     -5.88551573     6.70965663    -7.90285810     0.03649656     1.21916080    -0.27017478
Ti     -7.83122116     4.42669569    -7.84387506     0.86825854     0.68608251     1.71697836
Ti     -7.88073879     4.34657706    -3.67303524     1.93241696    -0.39632197    -1.48865493
Ti     -3.90789576     4.29577927    -7.69498168     0.01863935     0.64680077    -0.47369484
Ti     -3.93880528     4.43404682    -3.82822094    -1.86942593     0.26767724     0.95894556
Ti     -5.86468469     8.70779126    -2.14583038     0.74283347    -0.62965957     0.18295370
Ni     -5.92643050     2.35051406    -8.17657448     0.76323433    -0.26887877     1.15404275
Ni     -5.85549419     2.15428343    -4.11401444    -0.82709932     1.76265912    -0.28933394
Ni     -9.77451991     6.41048274    -7.78536918    -0.88272551     0.59801530    -1.41665323
Ni     -9.87267890     6.26323019    -3.95791241     0.78206709     0.82512411     0.17463684
Ni     -1.98977424     2.27173691    -7.99893628     1.69483077    -0.72203872     0.13092112
Ni     -5.88884804     6.58440062    -3.97167537    -0.36845744    -0.50141627    -0.08252008
Ni     -1.99157675     0.07389582    -5.92141236     0.04615888    -0.29613685    -1.81075691
Mo     -9.77873179     8.65481376   -10.23490280     0.10906429    -0.57377472    -0.05144297
Mo     -5.90038684     0.02621649    -6.33035565     0.25926862     0.88710019     0.62452646
O      -1.87436141     1.92244428    -1.95639695    -0.97496037     0.70486783    -0.77757286
O      -1.87115942     1.92701144    -6.14513403    -0.49621675    -0.47092148     1.32876498
O      -5.88909451     6.80280891    -1.97790036    -0.14462947    -0.41185621    -0.38429197
O      -5.89613778     6.82979759    -5.92527764    -0.27563972     0.72896029     0.27530795
O      -5.88793755     2.02677709   -10.17257143    -0.22923554    -0.34631915     0.88064474
O      -5.95602576     2.04176737    -6.08687165     0.17926384    -0.25664282     1.05379751
O      -9.81214152     6.78201692    -9.85385299     0.26853077     0.24526700    -0.32026004
O      -9.87750694     6.89567130    -5.96755352     0.55791980    -1.35017542     0.80324899
O      -3.88216782     2.50140053    -4.13118138     0.11174775    -0.98176818     1.27908672
O      -3.82534944     2.38698172    -7.96864631    -1.32684775     0.67849729    -0.25428070
O      -7.85450987     2.37737708    -3.97914423    -0.10369007     0.71707368    -0.22221237
O      -7.81502590     2.37171248    -7.91796214    -0.39716934     0.89006971    -1.06631158
O      -3.92766140     6.38544506    -3.92449209     0.44207448    -0.15836185    -0.23684330
O      -3.96726865     6.32370534    -7.98663713    -0.10215374    -0.59698861     0.55120876
O      -7.83471556     6.33499381    -3.98020773    -0.61259536    -0.32388392     0.45305239
O      -7.86918927     6.46746362    -8.04207992     0.70413408    -1.31334424     1.34261419
O      -3.96043452     4.36055561    -2.06035323     0.62698455    -0.03904419    -0.08124358
O      -3.74403429     4.37585512    -5.93674295    -0.51544460     0.62038661    -0.83968620
O      -7.95952251     4.46590550    -9.93092978     0.38339426    -0.02115841     1.67365478
O      -8.04301325     4.48148595    -6.00486038     0.46786523    -0.53557668    -2.28030637
O      -7.91096330     8.68850734    -9.88261460    -0.17714548     0.57650243    -0.52701151
O      -4.14455335     0.12770874    -6.10380128    -0.19270093    -0.52521756     0.04998880
O      -3.94992818     8.67917220    -2.03278559     0.54218936     0.11186300    -0.15455895
O     -11.56364200     8.64171621   -10.16669972    -0.91134281     0.55024726     1.09485250
O      -1.88537095     4.18887466    -4.05572824    -1.39662722     0.45208832     0.04693788
O      -9.75635324     4.38472150   -11.93099958    -1.87537312    -0.16042780    -0.80964772
O      -5.96651892     4.33321777    -4.11973038     1.17206418    -0.53963824     0.21258330
O      -5.88213574     4.32337928    -8.00871013     0.24049665    -0.13145395    -0.02076800
O      -2.04184604     0.37424980    -4.05382731     0.17568348    -0.44732462     0.48990478
O      -5.85772624     8.53006178    -8.00024328    -0.15735612    -0.40463346     0.65728397
O      -5.85892244     0.30045576    -4.02731000     0.51566665    -0.60456936    -0.97186785
O      -5.99417393     0.49165745    -8.07000693     0.07867858     0.37655231    -1.86932080
