# total energy = -630.24357915 eV

CRYSTAL
PRIMVEC
        0.00279571     0.02951795    -7.98606283
       -7.83802570     0.01298533    -3.99532603
       -3.92160916     8.71933433     0.00634407
PRIMCOORD
56 1
Li     -3.92068255     2.29626685    -1.84758681    -0.21219784    -0.35074458    -0.12931706
Li     -4.06262424     2.32770519    -5.95512253     0.25793337     0.02546677     0.26105510
Li     -7.79228133     2.25823567    -9.98689514    -0.22231869    -0.17531776    -0.10878839
Li     -7.73327904     2.38098817    -5.75616089    -0.98640209     0.01806157    -0.36998192
Li     -3.76705977     6.43777916    -1.83482435    -0.37118992    -0.03783796    -0.79670895
Li     -3.74225874     6.46991118    -6.06054232    -0.75311963    -0.05107634     1.01200286
Li     -7.83675419     6.39658471   -10.03024866     0.16218021     0.29104408     0.32054776
Li     -7.75405441     6.53100335    -6.03668107    -0.80215795     0.14446194     1.00419406
Ti     -1.94327203     2.36830346    -4.08714574    -0.24343259     0.16999179     0.29742011
Ti     -5.76933112     6.81838955    -7.94357127    -0.48283832    -0.60651242     0.57765092
Ti     -7.64662334     4.51260588    -7.68354032    -1.19593259    -1.98915080     0.18970855
Ti     -7.96281403     4.37746646    -3.70200947     0.78307155     0.01866110    -0.13207308
Ti     -3.94111318     4.37477788    -7.73223534     0.18015143    -1.06378797    -0.04074643
Ti     -4.04160795     4.50615958    -3.66938284    -1.15142237    -2.08774545     0.08805520
Ti     -1.86234945     0.01371073    -2.17697358    -1.18968910     0.59231560    -0.50251913
Ni     -5.94969481     2.17925928    -7.95925563     0.09378598    -0.47469890    -0.91215366
Ni     -5.85369114     2.23943062    -3.92798164    -0.52305446    -0.59522750     0.48373146
Ni     -9.72512338     6.39578932    -7.89001571    -0.71320913    -1.01130381    -0.77924330
Ni     -9.80225062     6.58347552    -4.07530212     1.02538656    -0.28932834     1.78863226
Ni     -1.96537874     2.23290798    -7.92686457    -0.63880328    -0.27033377    -1.01145342
Ni     -5.96932897     6.64365774    -4.10135463     0.59165078     0.30813432     0.13384185
Ni     -2.14975774     0.05454488    -5.98837429     1.28158308    -0.36944637    -0.19262258
Mo     -9.80979668     8.50132040   -10.30175240     0.00707145     3.50027966    -0.64126807
Mo     -5.92608348     0.09343608    -6.37616780     1.63486027    -0.04903042    -0.13170375
O      -1.91870363     1.89188976    -1.93345732    -0.16299161     1.09311272    -0.07275303
O      -2.03484358     1.88573037    -6.11489687    -0.07607172     0.01164175     1.91007742
O      -5.95367608     6.85559085    -2.23661021     0.53167486    -1.19871118     1.52209360
O      -5.93899083     6.88964548    -5.97348009     0.10108984     0.34126721    -0.36230482
O      -5.99014670     1.80214469    -9.86405431     0.93326924     0.32889380     0.41360803
O      -6.00258086     2.01664917    -6.12346089     0.71679357    -0.76774029     0.85878061
O      -9.72274506     6.70008223   -10.08734794    -0.14397675    -1.83717133     0.04836361
O      -9.75833538     6.77638458    -5.82185422    -0.50102345     0.40998897    -1.85176752
O      -3.86844767     2.50825768    -3.95942304     0.06657531    -0.37795595    -0.20326489
O      -4.01317852     2.35067975    -7.81794741    -0.16651778     0.76937263    -1.16383892
O      -7.93536397     2.41411561    -3.90516234     0.66578160    -0.49473435    -0.01217141
O      -7.88992214     2.49211690    -8.09178236     0.82037424    -0.08980612     0.80302088
O      -3.89089476     6.27980445    -4.07303201     0.12966553     1.20989372     0.51458357
O      -3.86484615     6.39163357    -7.95113262    -0.44928378     0.46938773    -0.41589813
O      -7.85910788     6.31070299    -4.04584553    -0.10666686     0.03021176    -0.01541277
O      -7.82043673     6.38327940    -7.90297755     0.18036777     0.41862239    -0.50444629
O      -3.85394045     4.32772136    -1.91076285    -0.35293930     0.44995857    -0.29081536
O      -3.98322827     4.40384528    -5.98861252     0.21648274    -0.09432650     0.57882616
O      -8.07617555     4.40752229    -9.93307623     0.87280527     0.19147525     0.36842933
O      -7.64025983     4.26099148    -5.92681544    -0.73343127     0.65565886    -0.98589598
O      -7.95305014     8.68044303    -2.10175023    -0.23393038    -0.14454751     0.29710003
O      -8.04083576     8.72717271    -6.08500181    -0.00215405     0.49689622    -0.09718981
O     -11.70226795     8.70076009    -6.21999347     0.98191646    -0.20345439     0.58399779
O     -11.66121136     8.54429079   -10.02986639     1.23648868     0.12003605    -0.31321431
O      -9.76706892     4.34894976    -7.93457386    -0.40461378     0.19005702     0.18991390
O      -2.02129831     4.30034627    -7.96774474     0.07183940    -0.29019353    -0.52890631
O      -6.00051844     4.03245848    -3.84385122     1.49384344     0.88946870     0.07153420
O      -5.83900219     4.74402292    -7.92060426     0.48081223     0.28036549    -1.03161306
O      -1.89822772     0.30539656    -3.97830204    -0.59009068     0.85386317    -1.17178453
O      -5.75551170     8.61517130    -8.07194910    -0.41168449    -0.01353757    -0.06769526
O      -5.76230248     0.35689596    -4.09284320    -0.95723659    -0.01367073    -0.09405309
O      -9.68165137     8.17938243    -8.11748614    -0.65807100     0.46703374     0.65694774
