# total energy = -630.65246993 eV

CRYSTAL
PRIMVEC
        0.00279571     0.02951795    -7.98606283
       -7.83802570     0.01298533    -3.99532603
       -3.92160916     8.71933433     0.00634407
PRIMCOORD
56 1
Li     -4.02623260     2.43280571    -2.01637186     0.74401202    -0.11848616     0.10640722
Li     -3.91655346     2.00008633    -6.16745268    -0.15756411    -0.02014115     0.64953683
Li     -7.96396710     2.05594267   -10.01931320     0.80259248     0.52840160    -0.23812781
Li     -7.85369879     2.19670219    -6.02547674     0.35274157    -0.14809921     0.10810955
Li     -3.75805734     6.35640338    -1.84772511    -0.86752038     0.12077639    -0.12437248
Li     -3.89058319     6.77118779    -5.90966278    -0.36352800    -0.28015848     0.57108360
Li     -7.74870450     6.66176193    -9.95332806    -0.61114718    -0.34819247     0.68735493
Li     -7.87920906     6.53454503    -5.81791903    -0.05755559    -0.06843851     0.10096398
Ti     -1.99486834     2.36720360    -4.09787751    -0.46889420    -0.20279908     0.51056698
Ti     -5.87904873     6.62700831    -7.89519999    -1.04483386     0.30511714    -0.47822147
Ti     -7.85552881     4.42036803    -7.66059352    -0.08442733     0.66819729    -0.26429643
Ti     -7.76119040     4.43327556    -3.67461101    -1.31059990    -0.46175017    -2.03415234
Ti     -3.77903995     4.41095712    -7.51742549     0.43249249    -0.96113844    -0.39032699
Ti     -4.17188266     4.48426446    -3.77710738     1.41640795    -0.31981488    -0.04368397
Ti     -6.08744539     8.70684038    -2.21628978     1.32440761     0.27291298     0.17140976
Ni     -5.77257883     2.47456288    -8.14048853    -0.86653572    -0.69088250     0.63366076
Ni     -5.89602211     2.16043273    -4.15421927    -0.11565456    -0.58414257    -0.43077107
Ni     -9.90109950     6.42640007    -7.83755479     1.65013406     0.62773014     0.39683738
Ni     -9.86631913     6.62656351    -3.84621797     1.56833117    -0.16655634    -0.66497521
Ni     -1.95303760     2.06840262    -8.05165720     0.11805877     0.64849352    -0.13855640
Ni     -5.91209525     6.61533685    -4.02003476     0.23571617     0.33744324     1.25571869
Ni     -5.88406080     8.66937901    -5.97601778    -0.44754488     0.03413750     0.31045090
Mo     -9.87892855     8.71942798   -10.19200627    -0.45021866     1.16459704     0.37074097
Mo     -9.74195810     8.59803185    -6.50153621    -1.64726940     0.34584746     0.32425927
O      -1.90798838     1.99689293    -2.06542493    -0.60831112    -1.51413552     0.42538330
O      -1.97869153     1.78013872    -6.01783141     0.06920484     0.18543405    -0.84345635
O      -5.86082262     6.74876684    -2.01835080     0.28384201     0.42118779     0.08188851
O      -5.89044096     6.77503606    -5.90852289     0.05152164     0.65743785     0.00256839
O      -5.82799861     2.01930647   -10.19083101    -0.61132627    -0.48171864    -0.37953198
O      -5.88845701     1.84839801    -6.13159700     0.17946518     0.89911143     1.08177379
O      -9.79004039     6.91228334    -9.65821079    -0.16043302    -0.03738588    -0.44176736
O      -9.80534206     6.74200553    -5.85586825     0.27745844    -0.07360059    -1.23201498
O      -3.84355134     2.32269051    -4.05811654    -0.93291466     0.45832460     0.28349777
O      -3.85871242     2.50798760    -8.01433116     0.20161041     0.40476018    -0.03579491
O      -7.95911332     2.36379446    -4.11360675     0.75584945     0.51592316     0.73236543
O      -7.78434192     2.53022104    -8.01211584     0.00209758    -0.80000213    -0.29243077
O      -3.93596974     6.40751571    -3.99032146    -0.44295175    -1.06514096     0.25991406
O      -3.94086744     6.31701434    -7.79991424    -0.25969439     0.72760677    -0.32437769
O      -7.82519221     6.41858129    -3.78400118     0.07561980    -0.43113994    -1.13362041
O      -7.84623005     6.43654336    -7.86871902    -0.04346938    -0.57104238    -0.62593441
O      -3.99082242     4.33420707    -2.01327885    -0.01251304     0.42951693    -0.50290929
O      -3.69463269     4.21910960    -5.77940776    -0.47335333     0.29765985    -0.86917814
O      -7.88183649     4.31346390    -9.97188511     0.27415693     0.16769558     1.66907321
O      -8.02423138     4.57144108    -5.95102188     0.21658812    -0.41055210     0.96421169
O      -7.88456019     8.63338168    -2.16584062    -0.15815992     0.31144487     0.22057339
O      -8.02335152     8.69191060    -6.00622394     1.38314458    -0.36357532     0.15829145
O     -11.53507340     8.59722413    -6.21206875    -0.09859276     0.40815115     0.22751244
O      -7.77830473     0.05758326    -9.92792146     1.40445711    -0.30554227    -0.58333879
O      -1.95452788     4.24100871    -3.97151772    -0.64769059    -0.33466111    -0.09070305
O      -9.73944820     4.74297777   -11.86906550    -1.08116318     0.17441342    -0.09142129
O      -5.93621330     4.06634396    -4.21056332    -0.18336566    -0.15382392     0.21152302
O      -5.93821736     4.40476449    -7.78502560     2.08464624     0.13851445    -0.50826342
O      -1.87180146     0.21464214    -4.01334165    -0.20617954     0.14400892    -0.33218359
O      -5.90036738     8.44656549    -7.96181486     0.24472830     0.19766442    -0.05832695
O      -9.77607428     8.66169844    -4.05253654    -0.69895867     0.30992053     0.67383352
O      -5.57451000     0.60759698    -8.25966513    -0.86150878    -0.17218581    -0.06626598
