# total energy = -630.63264105 eV

CRYSTAL
PRIMVEC
        0.00285542     0.02004370    -7.95977623
       -7.82940539     0.00763210    -3.98158109
       -3.91729101     8.74642787     0.01461334
PRIMCOORD
56 1
Li     -3.82389863     2.43053428    -1.89990793    -0.27718405    -0.18615056    -0.11007301
Li     -4.03870415     2.31158468    -6.06136123     0.23794621    -0.11047164     0.28762578
Li     -7.72879195     2.36435409   -10.02469331    -0.33428431    -0.04584534     0.75836212
Li     -7.75889527     2.33956271    -5.95300218    -0.20380301    -0.17865172     0.25452317
Li     -3.92307800     6.46137170    -2.01250231     0.10556301     0.18172730     0.36469937
Li     -4.02090910     6.59276546    -5.88004651     0.83773477    -0.30459391     0.23422907
Li     -7.89687975     6.33324609    -9.96417245     0.35968393     0.23766676     0.52332467
Li     -7.81279106     6.51202080    -5.83795133    -0.39893485    -0.07041424     0.08279658
Ti     -2.00291494     2.18260670    -4.08843637    -0.83874597     0.09699529    -0.26630370
Ti     -5.84898416     6.77226352    -7.80293771    -0.85643006    -0.65937899    -1.49616390
Ti     -7.92684414     4.36192156    -7.70024118     1.23303401     0.18105503     0.02566770
Ti     -7.98257261     4.32768547    -3.74424248     0.70065275     0.27521943    -0.26911321
Ti     -3.88917640     4.45826260    -7.77453809    -0.26833709    -0.60522161     2.05376700
Ti     -3.97053834     4.49364423    -3.72593338    -0.57098643    -1.76761358    -1.58780354
Ti     -2.07153997     0.00504372    -2.18140139    -0.17669117    -1.38435396     0.16710925
Ni     -5.89817382     2.36402511    -8.08390598     1.15540829     1.76151277     0.68782685
Ni     -5.90950522     2.16528132    -4.02581826     1.54450484     0.67310516     0.73913082
Ni     -9.72371912     6.54684089    -7.89390514    -0.88902881     0.35643350    -1.03162925
Ni     -9.76583600     6.67206416    -3.90779049    -0.36139405     0.19850095    -0.12782563
Ni     -1.83462315     1.91878827    -7.87138827    -0.58232372     0.59427053    -0.36409865
Ni     -5.94816608     6.37994037    -3.89368579     0.65204041     0.62499114    -0.48161810
Ni     -5.92545914     8.63881692    -5.90698357     0.10776442     1.32874211     0.07611363
Mo     -5.90397816     0.14490979   -10.19742897    -0.67206174    -0.57016778     1.05099483
Mo     -9.83716688     8.67247067    -6.31121625     1.74658476     0.95115867    -1.14511280
O      -1.93617364     1.85162135    -1.94531058     0.55496192     0.66610888     0.32643226
O      -1.94692665     1.82459352    -5.96697192    -0.01939171    -0.56625043    -1.06290725
O      -5.80835422     6.73838080    -2.05773774    -0.72122039     0.93543917     0.49290616
O      -5.93005918     6.77465082    -5.87773370    -0.10305058     0.23890629     0.39965137
O      -5.86501749     2.18567634   -10.02952944     0.50461897    -1.79484746    -0.42407457
O      -5.90614630     1.89549061    -5.83165097    -0.07974150    -0.21437962    -1.32055317
O      -9.73877793     6.92253486    -9.76263604    -0.29235690     1.10777889     0.04548363
O      -9.74770320     6.76715718    -6.07893412    -0.36097880     0.00210805     1.36958076
O      -3.95013875     2.28433183    -4.07092036     0.79692367     0.78453438     0.65564665
O      -3.81506867     2.56117110    -7.97805524    -0.08505773    -0.56171198     0.39212094
O      -7.72929035     2.35996662    -3.89975824    -1.78777635     0.14156233    -0.76432706
O      -7.82199941     2.43572978    -8.07412187    -0.13587124    -0.03096333     0.75602310
O      -3.87285851     6.33376199    -4.00989878     0.09493961     0.69645761     0.88708614
O      -4.01671166     6.44559356    -7.82676557     0.65764538     0.49882328    -0.86386431
O      -7.85430778     6.37702611    -3.88593695     0.61084419    -0.35941314    -0.38171325
O      -7.82182166     6.29056520    -7.98278377     0.05906753     0.54859035     0.63044367
O      -3.88496037     4.41784442    -1.96956134     0.41249302     0.33579466     0.20095089
O      -3.84236567     4.59173089    -5.95073967     0.01279382    -0.95242952    -1.74666445
O      -7.68564054     4.43434318    -9.95568169    -0.90536918    -0.43006609    -0.49106310
O      -7.90693893     4.32991569    -5.91605477     0.47026549     0.13485293    -0.72361461
O      -4.01642535     0.09205739    -2.03378231     0.77704276    -0.12354018    -0.48980935
O      -7.93737477     8.70440583    -6.05831772    -0.58092023    -0.32345113     0.30201016
O     -11.65083741     8.68737483    -6.10497225     0.50850771    -0.13596465    -0.04837430
O      -7.72417359     0.11267556   -10.03187790     0.68342882    -0.32948102     0.54999186
O      -1.98264403     4.09368645    -4.01883125    -0.20345356     0.18593674    -0.00070523
O      -9.76178845     4.85320694    -4.04195577    -0.90160526    -0.56832017     0.30239359
O      -5.82764101     4.18271808    -4.08959003    -0.70458594     0.40612345     0.31044969
O      -5.90458166     4.34131126    -8.08559076     0.42156622    -0.26668179     0.95993821
O      -1.83128568     0.25980176    -3.99987921    -0.64419412    -0.81586289     0.34027717
O      -5.78428401     8.55133867    -7.99730879    -0.49912719    -0.00831502    -0.53529128
O      -9.87998997     8.65665354    -4.01988958     0.50517702    -0.29182126    -0.97098505
O      -5.64251251     0.59179305    -8.08102610    -1.31297736    -0.58030429     0.42505092
