# total energy = -630.47497229 eV

CRYSTAL
PRIMVEC
        0.00279571     0.02951795    -7.98606283
       -7.83802570     0.01298533    -3.99532603
       -3.92160916     8.71933433     0.00634407
PRIMCOORD
56 1
Li     -3.95647964     2.26703630    -1.97178487     0.32850804     0.32574639    -0.34021832
Li     -3.79349984     2.05628897    -6.13561231    -0.31426170    -0.49448115     0.90849237
Li     -7.85324907     2.31080069   -10.05287575     0.34525383     0.05748174     0.09911004
Li     -7.79815558     2.36404981    -5.82228099     0.06671165     0.06658905    -0.57209689
Li     -3.82480640     6.26903515    -2.04855755    -0.38346872     0.58405120     0.36303665
Li     -3.99488911     6.56299099    -5.95258281     0.31493633    -0.46053719     0.44958056
Li     -7.95003714     6.60134119   -10.01729368     0.63128869    -0.47517575     0.03663984
Li     -7.81955627     6.50305169    -5.90940530     0.17363219     0.01292811    -0.46645912
Ti     -1.80161913     2.25831459    -4.00581065    -1.56260950    -0.49516898    -1.04040061
Ti     -5.85892909     6.76754940    -7.95215976    -0.99187380     1.11509177    -0.27171401
Ti     -7.74211365     4.36294617    -7.87138637    -0.15796233     0.58841698     1.08341829
Ti     -7.86445184     4.39206280    -3.82497645     0.44288263     0.10897706     1.65605440
Ti     -3.94584953     4.24221468    -7.64611171    -0.27098664     0.58896143    -1.16375494
Ti     -3.97172603     4.34652083    -3.81661713    -0.51783776    -0.26206860     1.19167997
Ti     -2.19413580     0.08517612    -2.10194128     0.61526338    -1.43736257    -0.79050321
Ni     -5.77836887     2.21111086    -8.05700958    -0.96785276     0.00228106     0.25219061
Ni     -5.91895241     2.30921934    -3.99493008     0.85631693    -1.27191565    -0.48814762
Ni     -9.79128243     6.58185741    -7.93934463     0.67742161    -0.47898210     1.00164139
Ni     -9.86732186     6.26675824    -4.06167925     0.30097303    -0.13168010     0.45189196
Ni     -1.95469841     2.23497618    -8.05920689     1.12077438    -0.06597820     0.90335756
Ni     -5.86949228     6.68560621    -3.99920568    -0.23614803    -0.42158505     0.00470858
Ni     -5.83179223     8.70411122    -5.93639288    -1.15108453     0.39740957     0.22245595
Mo     -9.92823085     8.74835433   -10.20041206     0.35580120    -0.07869384    -0.74277981
Mo     -9.86880877     8.72639801    -6.25908411     1.85237206    -0.92237903     0.76870327
O      -1.84552822     1.99687447    -1.98422924    -0.55041164    -0.83939492    -0.66769582
O      -1.85937724     1.87774206    -6.03999169    -0.53947630    -0.43520403     0.54178114
O      -5.91935955     6.77486953    -2.10995956     0.02593278     1.26007708     1.39041165
O      -5.92569247     6.79037522    -5.89700304     0.68875285     0.75525489    -0.56790008
O      -5.77661505     2.09461616    -9.97954601    -0.98569195    -0.98080470    -0.37430328
O      -5.97547491     1.98405448    -5.96108616     1.01132000    -0.34042898    -0.22522828
O      -9.79381202     6.86834344    -9.84304550    -0.54201255     1.13143053    -0.56525618
O      -9.65003535     6.74705788    -5.84954968    -1.88291616     1.12781154    -1.67362604
O      -3.83898804     2.39940692    -4.06331332    -0.38126673     0.16363695     0.45006925
O      -3.81206547     2.33216958    -8.07620200    -0.85874669     0.62852353     0.92483719
O      -7.84247389     2.33487672    -3.97560996    -0.30816884     1.41143445     0.11336590
O      -7.75120277     2.31697169    -8.05067765    -0.42101620     0.61944853     0.12761782
O      -3.77836954     6.33825845    -3.99303955    -0.71541894     0.16119460     0.06104844
O      -4.03944408     6.34824670    -7.91769189     0.78898563    -0.49667686    -0.16106063
O      -7.92958244     6.33855717    -4.10014031     0.15357501    -0.66538255     1.44624793
O      -7.80458860     6.35420214    -7.97810582     0.33610662    -0.14592430    -0.04832577
O      -4.03632309     4.44266643    -2.00934085     0.52640019    -0.42794504    -1.24961625
O      -3.78741255     4.45530388    -5.92345232    -0.40392124    -0.02464108    -0.14268245
O      -7.94493117     4.51709400    -9.94702657     0.04299103    -0.41890281    -2.15106645
O      -7.76292076     4.39899842    -6.08255090    -0.75243243    -0.11903412    -0.09103438
O      -4.02653476     0.12335715    -9.96514277     0.57541948    -0.27886226    -0.20831047
O      -4.02820091     0.04687020    -6.02159572    -1.61045559    -0.01216497    -0.04223991
O     -11.65374419     8.66644908    -6.00189616     0.12255017    -0.25420231     0.05998215
O      -7.74285783     0.17179650    -9.96793520    -0.10517255    -0.75085939     0.02518898
O      -1.95916220     4.11546585    -4.01083664     0.90012195    -0.25014814     0.18152943
O      -2.07084922     4.29487032    -0.11495976     1.46929108    -0.04693087    -0.21339663
O      -5.93232286     4.19006909    -4.06533694    -0.11977535     0.33423694    -0.02448725
O      -5.86307570     4.13959047    -7.97916323     0.76442111     0.36906143    -0.21817216
O      -1.96357747     0.13558108    -3.99493065     0.04733709     0.81934745     0.99932967
O      -5.95605340     8.62302017    -7.82332878     0.54161859    -1.17756076    -1.57071436
O      -5.97215276     0.29058172    -4.00461493     0.46042877     0.35427541     0.58744288
O      -5.88589297     0.34073042    -8.07063384     0.22015473     0.98230506    -0.51192070
