# total energy = -630.14097416 eV

CRYSTAL
PRIMVEC
        0.00279571     0.02951795    -7.98606283
       -7.83802570     0.01298533    -3.99532603
       -3.92160916     8.71933433     0.00634407
PRIMCOORD
56 1
Li     -3.90732686     2.35715592    -1.90464506    -0.22469875    -0.00789676    -0.46367784
Li     -4.01337858     2.27948844    -6.18397692    -0.17564799     0.07730334     0.99786092
Li     -7.83488434     2.09986346    -9.94888442    -0.59745317     0.21424918    -0.05122595
Li     -7.84757236     2.33216570    -6.09460946     0.01237026    -0.12033117     0.64151092
Li     -3.84304388     6.60865774    -2.08816242    -0.26985089    -0.09167951     0.46462947
Li     -3.88027053     6.53593403    -5.87373114    -0.27737937     0.12243919    -0.37588324
Li     -7.82877457     6.70747812    -9.93485488    -0.12445124    -0.15219652     0.03761205
Li     -8.02767556     6.32445094    -5.81287138     0.65491825     0.05431723    -0.06823706
Ti     -2.16055692     2.28589812    -4.06409880     0.30284131    -1.36307073     0.37409648
Ti     -5.87560247     6.58565935    -7.97497553     0.66319789     0.79448752     0.61008214
Ti     -7.82886201     4.42631545    -7.80172415    -0.31613973    -0.93561124     1.05827438
Ti     -7.78400060     4.32849842    -3.69558613    -0.43530717    -0.29192479    -2.31739327
Ti     -3.78782607     4.50506577    -7.83339867     0.87193005     0.24996752     1.03490107
Ti     -4.06344583     4.47185643    -3.84110428    -0.01664107    -1.26349049     1.22974152
Ti     -5.85005316     8.70260938    -2.01812896     0.48156158     1.30095547    -0.92813545
Ni     -5.81259198     2.41853235    -8.14071996    -1.22089566     0.18927404     1.05219510
Ni     -6.00634039     1.88838126    -4.12948111     0.15205594     0.87553185     1.41870788
Ni     -9.79931353     6.36656712    -7.98910671    -0.32559301     0.96818411     1.21971729
Ni     -9.69396414     6.60611541    -3.82566407    -1.29251715    -0.35861331    -0.85653697
Ni     -2.11679306     2.16794685    -7.86096543     1.96920807    -0.27437021    -1.31970136
Ni     -5.96831977     6.50621745    -3.99073291     0.95609373     1.28188954    -0.60227847
Ni     -5.94865296     8.71659014    -5.88280045     0.54833849    -1.46188012    -0.15244011
Mo     -5.90520052     0.07838607   -10.18186576     0.72118119     0.68428535    -0.57863297
Mo     -9.68933158     8.62098561    -6.39575522    -2.52163142    -0.47370585    -0.15035761
O      -2.00000019     1.89002583    -1.94750064    -0.01282384     0.49251646    -0.36371611
O      -2.05450546     1.79146481    -5.98912408    -0.09749884     1.11304611     0.27103201
O      -5.82736956     6.83504653    -2.00809868    -0.77188590    -2.05593094     0.13160171
O      -5.87263626     6.88895533    -5.87650620    -0.21628165    -0.07416400    -0.31635144
O      -6.01864328     2.07433544   -10.06099962     1.66988363    -0.44508264    -1.43752681
O      -5.85601647     1.83273657    -5.94174117    -0.62771757     0.67513209    -0.23555606
O      -9.77109288     6.90893615    -9.78163916     0.15419839    -0.32614860    -0.25266144
O      -9.83185037     6.70945037    -6.09183868     0.36940011     0.44228018     0.01241605
O      -4.08293925     2.47103418    -4.03217165     1.01140600    -1.05674630    -0.23520650
O      -3.92912572     2.48039703    -8.02089068    -0.29231410     0.91681398     0.20770539
O      -7.99044676     2.41904136    -4.02513146     0.04169719    -0.12790457     0.42931804
O      -7.80056347     2.51304175    -8.00375862    -0.09668248    -0.25616342    -0.28918597
O      -3.90672580     6.29934332    -4.03848026     0.55222423     1.34754552     0.51833025
O      -3.90447876     6.49680742    -7.96573744    -0.36642790    -1.30781768     0.10214010
O      -7.84455928     6.41507064    -3.87341676     0.15921698    -0.58383755    -0.13453100
O      -7.88754707     6.41701135    -7.77864683     0.79039819    -0.08623333    -1.75922016
O      -3.79987968     4.34427075    -2.04583940    -0.51754765     0.33630442    -0.33386866
O      -3.82125095     4.56499283    -6.01105571    -0.00113276    -1.00755567    -1.57353444
O      -7.89852326     4.45337039    -9.98613198    -0.04783802     0.29497225     2.23647825
O      -7.97383265     4.42405704    -6.02991809     0.21109918    -0.28430478    -0.68170428
O      -3.96940134     0.03846897    -9.98018520    -0.16987427     0.21521045     0.00090074
O      -7.99918395     8.68833341    -5.90914800     1.20592917    -0.27280665    -0.46028740
O     -11.59736772     8.60681710    -6.10489439     0.12498983     0.46577088    -0.06040819
O      -7.65049200     0.13972380    -9.88327321    -0.84640785    -0.77881253    -0.41756343
O      -2.05622026     4.09428298    -4.08211419     0.67685304     0.50348878    -0.24054619
O      -9.71781449     4.72133920    -4.01773352    -0.60691334     0.13963563     0.14791603
O      -5.90897024     4.58292525    -4.20525663    -0.99427914    -0.00004598     0.63047725
O      -5.87798882     4.47609770    -8.05106279     0.42090271     0.02905633    -0.00801969
O      -1.84527868     0.13470992    -3.96887217    -0.70278537     0.53857332     0.37584283
O      -5.69170823     8.39717391    -8.05659017    -0.96999306     0.79826009     0.78627894
O      -9.82961752     8.58694296    -4.06049921     0.08727370    -0.08976276     0.62041103
O      -5.81917671     0.59600482    -8.10461097     0.45397758    -0.25656637    -0.00711510
