# total energy = -630.73829318 eV

CRYSTAL
PRIMVEC
        0.00279571     0.02951795    -7.98606283
       -7.83802570     0.01298533    -3.99532603
       -3.92160916     8.71933433     0.00634407
PRIMCOORD
56 1
Li     -3.99647849     2.17808442    -1.86601799     0.36822508     0.26296523    -0.38271277
Li     -3.89594992     2.36544213    -6.05702607     0.02957320     0.10347120     0.17472741
Li     -7.87118419     2.21184746    -9.93775195     0.25428043    -0.06240205    -0.33834693
Li     -7.81681388     2.23136722    -5.93774073     0.10406811     0.50697157     0.01536062
Li     -3.87276519     6.32788126    -1.99300844    -0.10873119     0.25816113     0.51953258
Li     -3.92298690     6.78925708    -5.77396095    -0.27459721    -0.36896547    -0.18814693
Li     -7.89324744     6.59621161    -9.76657438    -0.22858422     0.13850609    -0.98833301
Li     -7.87013797     6.44999045    -5.80169932    -0.05895014    -0.42072977    -0.56768563
Ti     -1.95929819     2.16054558    -4.04836735    -0.77034817     0.48368532     0.01461226
Ti     -5.92236007     6.74117315    -7.93595216     0.74129674    -0.48581425     0.67443023
Ti     -7.81727285     4.46225054    -7.83028724     0.08473183    -0.78900752     0.30662420
Ti     -7.90516940     4.39452683    -3.71719209    -0.06556259    -1.30609090     0.22749233
Ti     -3.94457356     4.39443634    -7.77865881    -0.07457594    -0.39517910     1.05219686
Ti     -4.07262656     4.48509107    -3.80590118     0.73229116    -0.53217560    -0.51677281
Ti     -1.57102578     0.06763399    -2.04831656     0.07997163    -0.31182590     0.01803213
Ni     -5.92048305     2.14059675    -7.90656848     0.86367265    -0.05901462    -0.20807594
Ni     -5.82660883     2.31323282    -4.16839034    -0.62310815    -0.42417585     0.22313478
Ni     -9.76769711     6.41953824    -8.00791389    -0.80197128    -0.55101424    -0.33954043
Ni     -9.86821239     6.56769239    -3.90514782    -0.00564512    -0.53096392    -0.18346640
Ni     -1.95219956     2.01444684    -7.99971882    -0.10956856     0.87268989     0.34346536
Ni     -6.06765505     6.70739823    -3.98056570     0.90166759     0.08920279     0.62194494
Ni     -2.05511088     0.05899662    -5.95861995     1.70985998    -0.51541655     0.18690529
Mo     -5.91330032     0.12207064   -10.30680814    -1.42963168    -0.71028408    -0.92602577
Mo     -9.56673950     8.62074308    -6.31780740    -1.65751647     0.47791091    -0.54924936
O      -1.96191706     1.90268090    -1.96400444     0.01204157     0.53880986     0.03344515
O      -1.97219272     1.89617597    -6.05306611    -0.05678433     0.20697804     0.14457892
O      -5.93495434     6.97630144    -1.94779244    -0.38180209    -1.97599289    -0.43798811
O      -5.97158390     6.93500502    -5.86717697     0.01868282    -0.30414254    -0.39380359
O      -5.86417063     1.89174066    -9.72303701    -1.16591182     0.22016281    -0.56986807
O      -5.88215936     1.81213908    -6.10914004     0.23951162     0.56468431     0.46912380
O      -9.86483420     6.77318976   -10.10246297     0.30344333     0.59350685     1.04966088
O      -9.81850829     6.82126505    -5.73438155     0.33011097     0.03847554    -0.64796318
O      -3.83062899     2.37456646    -4.07503120    -0.68537298     0.04757186     0.18595877
O      -4.02099308     2.37992492    -7.98725394     0.27773691     0.02057553     0.49320767
O      -7.81983814     2.36899312    -3.98879656    -0.13236839     0.81573070    -0.09694217
O      -7.80748724     2.32608845    -7.99291524    -0.85419968     0.98762377     0.32986012
O      -3.90173515     6.38861684    -3.87098405    -0.31337530    -0.23476607    -0.38631329
O      -3.92633865     6.35887768    -7.78301108    -0.88274221     0.66400566    -1.38864886
O      -7.94985062     6.29335637    -3.96273023     0.59776710     0.69591616     0.35141521
O      -7.84491760     6.45934340    -7.88331044    -0.19588142    -0.66013620    -0.31006339
O      -4.14153920     4.16706700    -2.07232664     0.19046631     0.67076555     0.78624006
O      -4.01402030     4.31456979    -6.00062282    -0.21448663    -0.45795096    -0.55926718
O      -7.94933795     4.40923459    -9.91217931    -0.04270078    -0.09383110    -0.68632640
O      -8.09386478     4.38126296    -6.10353099     0.57199526    -0.13570889     0.43609502
O      -8.11959339     8.75116196    -9.99630050     1.27172345    -0.37502215    -0.31521706
O      -7.83698682     8.65936407    -6.10764620     0.59882882     0.48453154     0.38916990
O     -11.53515226     8.65622073    -6.07311580    -1.25406610     0.47849729    -0.25187837
O      -3.90717121     8.66549528    -5.94429843     0.83886975     0.78008143    -0.21196705
O      -2.13289496     4.38447459    -4.03851921     1.67479300     0.12858692    -0.18959615
O      -2.05992995     4.45421210    -0.02632694     1.05544881    -0.31927316    -0.09636576
O      -5.94410818     4.20603435    -4.16268964    -1.32290888    -0.23755938     0.11660862
O      -5.93022892     4.69457261    -8.05282695    -0.03549732     0.76113818     0.24563195
O      -1.99042673     0.25656121    -3.93932562     0.06728875     0.25602412     0.25022965
O      -5.87199786     8.61384173    -8.01373797     0.27536367     0.20415788    -0.52666708
O      -5.93524550     0.33764714    -4.19973992     0.44595029     0.23453073     1.71323095
O      -9.65750024     8.22608843    -8.11026792    -0.77886248     0.04853780     0.74217314
