# total energy = -630.18554225 eV

CRYSTAL
PRIMVEC
        0.00279571     0.02951795    -7.98606283
       -7.83802570     0.01298533    -3.99532603
       -3.92160916     8.71933433     0.00634407
PRIMCOORD
56 1
Li     -3.96591371     1.83175980    -1.80716069     0.28401750     0.69446272    -0.17542840
Li     -3.91492171     2.31817724    -5.97807012    -0.59631228     0.22956036    -0.48527173
Li     -7.98803154     2.38785975    -9.91218743     0.67467928     0.04299778    -0.91318980
Li     -7.81986490     2.05627154    -5.94886150    -0.26325177     0.17642827    -0.04954638
Li     -4.00861462     6.60832595    -1.87903118     1.02110398    -0.29608302    -0.19945402
Li     -3.96644764     6.23171178    -5.77558654     0.58611828    -0.07291263    -0.86873427
Li     -7.96384768     6.50029300   -10.02212212     0.43593345    -0.09841927     0.02862959
Li     -7.89283561     6.47826293    -5.87841269     0.12782036     0.06485497     0.17264350
Ti     -2.07114721     2.11024960    -4.05557250     0.60113447    -0.39852366     1.16548279
Ti     -5.88412774     6.49861369    -7.87868355     1.22166104    -1.13787757     0.39507125
Ti     -7.80633653     4.35551028    -7.77897105    -0.76635275    -0.01149411     0.20489251
Ti     -7.84038150     4.36297281    -3.76644140     0.12746389     1.00815109    -0.18199156
Ti     -3.63044895     4.36036991    -7.81766154    -0.29001960     1.17144746     0.67110140
Ti     -3.89317221     4.36699774    -3.57371293    -0.19276710     1.31724584    -1.21216775
Ti     -6.02405341     8.55467157    -1.98364984    -1.33474295     1.37205530    -1.21548808
Ni     -5.80598624     2.47494692    -8.13723670    -1.29100988    -0.89135917     0.70001658
Ni     -5.87363773     2.28751689    -4.03831000    -0.87565265     0.01031924    -0.62760216
Ni     -9.64143550     6.57508473    -7.90155390    -1.42600086     0.19399357    -0.67938661
Ni     -9.82336671     6.75478703    -4.00082863     0.67797181    -2.65383534    -0.17044703
Ni     -1.98241651     2.16137785    -7.85040303     0.49303385    -0.30947635    -1.62008591
Ni     -5.76847253     6.62622959    -4.05589101    -1.24509222    -0.79492109     1.02060336
Ni     -5.92751919     8.62370114    -6.05912454     0.19777698    -0.28358725     0.95047048
Mo    -10.03629289     8.74626088   -10.21331517    -0.68562521    -1.02302068     0.29554875
Mo     -9.81383988     8.70467714    -6.35829932     1.18229902    -0.19959713    -1.02985234
O      -1.93839945     1.86894834    -2.02299838    -0.13599045    -0.56292447     0.34184785
O      -1.90565405     1.77875625    -6.03972590    -1.24238776    -0.21877791    -0.17260301
O      -5.82829873     6.65854623    -2.14310521    -0.30720657     0.95132220     0.35068634
O      -5.79572870     6.74077712    -5.92599726    -0.69529569     0.63946252    -0.27273719
O      -5.91937982     1.98211200   -10.13971088     0.36075556    -0.04079699    -0.16950782
O      -5.90598156     2.00286443    -5.97692063     0.44462337    -1.00815252     0.62098348
O      -9.79668143     6.84433203    -9.77458171     0.07565980     1.53970309    -0.00880084
O      -9.80815839     6.71432299    -6.08510024    -0.05408960     0.99011353     1.09261909
O      -3.98142714     2.46078357    -4.09324917     0.12016519    -0.46913923     0.93447314
O      -3.92643938     2.48405896    -7.94964768     0.88634201    -1.12983237    -0.44218068
O      -7.84508399     2.43164691    -4.03374194    -0.07121378     0.13394202     0.44475262
O      -7.82675131     2.48856549    -8.13874091     0.45039472    -0.49085707     1.25796958
O      -3.65815120     6.37790664    -3.99451887    -1.18944754    -1.36149695     1.09525144
O      -3.89825382     6.38997217    -7.81412497    -0.28175572    -0.03051753    -1.00855889
O      -7.76306790     6.41973226    -3.96538203    -0.15882131    -0.06305360    -0.06699105
O      -7.76576622     6.45969828    -7.95961690    -0.17944353    -0.89471892    -0.20498691
O      -4.06613330     4.42883422    -1.83840688     0.28743895    -0.06833136    -0.71044980
O      -3.95859893     4.35524311    -6.07688305     0.28087743    -0.06246111     0.60434798
O      -8.14287973     4.45902427    -9.98651452     0.60858658    -0.03655998    -0.02223104
O      -8.00562646     4.55294580    -6.03890143     0.52640439    -0.63175802    -0.30617303
O      -3.99016795     0.03746627    -2.07668296     0.22183674    -0.96391036     0.58249835
O      -7.98586881     8.53923544    -6.08078788    -0.08834591     0.83347419    -0.16292555
O     -11.59850834     8.65121932    -6.06934523    -0.89864728     0.04782746    -0.05079311
O      -0.06503904     0.03988726    -5.93840708     1.80876712    -0.29416202    -0.62865502
O      -2.00817142     4.00271797    -3.97555390    -0.40321472     0.47103700     0.25293768
O      -9.70648604     4.82495541    -4.13041024    -0.14726412     0.32362859     0.30699298
O      -5.91308891     4.59758889    -3.95997910     0.87425578    -0.20039803    -0.15683366
O      -5.87103085     4.39870682    -8.02228217    -0.38016955     0.29484160     0.02330037
O      -2.10362338     0.16567972    -3.99380147     0.64660573    -0.42681768     0.26789291
O      -5.75419720     8.28433197    -8.04599622    -0.37108433     1.81326004    -0.71254155
O      -9.92041915     8.52450113    -4.07053124     0.07724981     1.59373927     0.16942626
O      -5.91581006     0.48353026    -8.16729585     0.45525699     1.40373272     0.46003602
