# total energy = -630.64649700 eV

CRYSTAL
PRIMVEC
        0.00279571     0.02951795    -7.98606283
       -7.83802570     0.01298533    -3.99532603
       -3.92160916     8.71933433     0.00634407
PRIMCOORD
56 1
Li     -4.06059204     2.05810921    -1.87118646     0.32613634     0.13830623    -0.16988681
Li     -4.00313074     2.43369199    -5.97949699     0.30878499    -0.30203822    -0.11602110
Li     -7.85140031     2.12949786   -10.02191350     0.66003666    -0.07495149     0.20681856
Li     -7.81226057     2.44275344    -5.90658957    -0.12938605     0.19597998     0.03318104
Li     -4.02159876     6.58850633    -2.02377611     0.63805608    -0.30460697     0.09734705
Li     -3.92361176     6.23656587    -5.77964242    -0.09456977     0.40567846    -1.01302350
Li     -7.86102505     6.67650260    -9.74680224     0.15657900    -0.23983158    -1.37999524
Li     -8.06294482     6.42470192    -5.79518205     0.62611824    -0.03630262    -0.57286060
Ti     -1.89922096     2.22189441    -4.05315497    -2.28866837    -0.59543069    -0.42619005
Ti     -5.77318936     6.68060999    -7.83649087     0.17215161    -0.13947878    -0.68334783
Ti     -7.82546495     4.54012654    -7.85801400     0.60449907     0.13862087     1.14819446
Ti     -7.80922379     4.37610939    -3.70921297    -0.36538179     1.45121406     0.66918874
Ti     -3.89298031     4.25258333    -7.86685530    -0.43358182     0.35655609    -0.69797414
Ti     -3.99895212     4.28771534    -3.75259392    -0.88132370     0.04684631     1.61168284
Ti     -1.79910598     0.11566351    -2.01981894     0.81335432    -0.08250777     0.46502547
Ni     -5.95528260     2.20327842    -7.92463446     0.04870067    -0.00970550    -1.23034562
Ni     -5.87947202     2.19176744    -3.93399227     0.15702722    -0.45907168    -0.26217231
Ni     -9.96047903     6.25720198    -8.07617946     0.89761698     0.90184048     0.78561634
Ni     -9.87957394     6.66302805    -4.01783329     0.75210685    -0.25441417     0.66928010
Ni     -1.81968386     2.14481780    -7.98489197    -1.26509196    -0.42052403     0.13612902
Ni     -5.90693366     6.81931269    -3.93774612    -1.10568407    -0.75503334    -0.23008134
Ni     -1.98597553     0.06710730    -5.96969598     0.29967657    -0.20786146    -0.38409092
Mo     -9.87779860     8.58092748   -10.27540666    -1.59655588    -0.72463934    -0.58223618
Mo     -5.82131950     0.15818801    -6.38425202     0.44699041    -2.06168217     0.42676755
O      -2.07752391     2.03372893    -1.86556772     0.60409061    -0.65387134    -1.00929671
O      -1.85174019     1.89851745    -6.05677166    -0.68893743     0.18262543     0.69234081
O      -5.92420221     6.94882145    -1.94697824    -0.19097095    -0.37799938    -0.96162973
O      -5.92441244     6.90565787    -5.94104078    -0.36359327     0.47125886     0.67979814
O      -5.94793993     1.95385520    -9.90306870    -0.33040221    -0.87421027     0.39331174
O      -5.92437691     2.03102777    -6.06468339    -0.24503218     0.48406730     0.34777043
O      -9.78702276     6.51513723   -10.07987760    -1.04844892     2.13720021    -0.44336394
O      -9.85944348     6.89319770    -5.88518491    -0.47527705     0.49967573     0.25604461
O      -3.85686338     2.35879303    -4.00889119    -0.47445423     0.32989679    -0.07875316
O      -4.08197785     2.33286914    -7.99296136    -0.33272299     0.29130395     0.54767941
O      -7.74123906     2.43019962    -3.95695479    -0.69085458    -0.56825844    -0.14849775
O      -7.97121686     2.45000067    -7.95844350     3.01088276     0.10941137     0.18104329
O      -4.08748869     6.20600402    -3.98084128     0.46352511     0.20316260     0.26561560
O      -3.90881579     6.34130581    -8.00341467    -0.23178869     0.64741787     0.16708514
O      -7.93470073     6.32850359    -3.91873937     0.15805190     0.43362145    -0.34789868
O      -8.00852150     6.44799314    -7.99579576     0.43624081    -0.89567379     0.92299487
O      -3.75900101     4.35899640    -1.96913188    -0.53223541     0.16754350    -1.45872512
O      -3.84746990     4.40433230    -6.11891706    -0.21432407    -0.43867841     1.33424167
O      -7.44630982     4.55022508    -9.95221204    -1.31460822    -0.63417105    -0.38002373
O      -7.76405294     4.53848300    -6.04444819     0.09005194    -0.68445935    -0.80815390
O      -8.16289456     8.71204112    -9.88855686     1.06994879     0.09426485     0.02849787
O      -4.05900389     0.19054455    -6.19771227     0.17610605    -0.23718432     0.00693826
O      -7.78805370     0.13189193    -6.01759713    -0.39277926     0.27998922    -0.47250629
O      -3.91278715     8.65933075    -5.96167380     1.24020463     0.07797890    -0.25794712
O      -9.75725914     4.32461613    -8.13174140    -1.09029838    -0.13890785     0.00809284
O      -1.97868619     4.01943741    -8.01974755     1.92133900    -0.05360011     0.39416888
O      -5.90128999     4.00173122    -4.02053015     1.09942525     0.77208238    -0.17429408
O      -5.85751990     4.74838837    -8.04605740    -0.01707953     0.33909711     0.45000766
O      -2.08614038     0.30458529    -3.93945942     0.25142241     0.39615955     0.25678000
O      -5.77756351     8.64586276    -8.04343937    -0.27684931     0.22128212     0.47731881
O      -5.85171728     0.28896958    -4.14258074    -0.26178110     0.29485610     0.97259239
O      -9.97296953     8.11106795    -8.03920226    -0.23147904     0.29560891    -0.24832250
