# total energy = -630.55099604 eV

CRYSTAL
PRIMVEC
        0.00279571     0.02951795    -7.98606283
       -7.83802570     0.01298533    -3.99532603
       -3.92160916     8.71933433     0.00634407
PRIMCOORD
56 1
Li     -3.78063234     2.30496929    -1.87973692    -0.14422513    -0.18368661     0.04816977
Li     -4.02603304     2.27072256    -6.06869486     0.27800997    -0.08552359     0.23613568
Li     -7.77504600     2.42232959   -10.02571344    -0.04233287    -0.06280778     0.17454569
Li     -7.74733562     2.23576368    -6.03071044    -0.34392330     0.01344911     0.45917111
Li     -3.97723435     6.53217254    -1.89687137     0.50110120     0.00822689    -0.48859120
Li     -4.05017377     6.37624427    -6.06971058     0.80698767     0.19289394     1.03757392
Li     -7.72860149     6.23838006    -9.89629558    -0.85735213     0.58116541    -0.14105959
Li     -7.74291245     6.59028356    -5.88968276    -0.43062609    -0.05456937     0.18609637
Ti     -1.99000614     2.08271976    -4.19315033     0.58748839     1.17281092     1.59088901
Ti     -5.88416467     6.69075208    -8.06658090     0.19094022    -0.55424448     0.55931078
Ti     -7.86598212     4.44718806    -7.62753006    -0.93040722    -0.50560134     0.09294652
Ti     -7.82262590     4.40929275    -3.70063001    -1.31958920    -0.08855968    -0.27935855
Ti     -3.94083986     4.37650570    -7.68302553     1.23844047    -1.16327013    -0.16500642
Ti     -4.01244828     4.40209616    -3.62000859     0.68660435    -0.70177000     0.64365520
Ti     -2.16087162     0.04010051    -2.02146255    -0.82333634    -0.85541328    -0.37956440
Ni     -5.88930044     2.38471294    -8.16779813     0.68991001     0.10865502     1.38489689
Ni     -5.83136373     2.19892253    -4.06840388    -0.69629413     0.16564439     0.59056633
Ni     -9.79861224     6.49438324    -7.93291841    -0.41597306     0.22393887    -0.69327033
Ni     -9.82917313     6.48922708    -4.14929830     0.76208018    -0.07294157     0.91244997
Ni     -1.90027006     2.12090398    -7.88178673    -0.11235465     0.25904888    -1.35208341
Ni     -5.88969451     6.60150690    -4.00457663     0.63450890    -0.21852477     0.27564377
Ni     -5.94961761     8.68136566    -6.00953397     0.74806637    -0.57327309     0.49615899
Mo     -6.02141118     0.09552131   -10.25133254     1.69959375    -2.96449533     0.36886793
Mo     -9.77310136     8.70074117    -6.42168775    -0.32190042     0.40667731     0.05210807
O      -1.85134157     1.81884104    -1.88041121     0.08402978     1.67692514     0.16738708
O      -1.89117922     1.88435156    -6.02323531    -0.39581138    -0.61224066    -0.76860391
O      -5.86146295     6.73596324    -2.03990530    -0.07571504     0.00595218     0.23291790
O      -5.87997207     6.80025379    -6.00996322    -0.08760150     0.77990769     0.75998188
O      -5.81980837     1.91759996   -10.07522420     0.21229359     2.83626551    -0.86868964
O      -5.86472472     1.96008324    -5.90190567     0.03132262    -0.57873780    -0.82147106
O      -9.86210317     6.93566598    -9.83590733     0.53293762     0.28933458     0.47081060
O      -9.81130180     6.79726426    -6.10619991     0.58823229    -0.49902283     0.81195896
O      -3.85236821     2.34870287    -4.09370055    -0.54200454    -0.12795698     0.64114302
O      -3.87815426     2.35936966    -7.97840423     0.01278906     1.21325125     0.57552298
O      -7.86900864     2.51518492    -4.04696890     0.29115817    -1.50362928     0.52462740
O      -7.80775303     2.54861552    -8.00239213    -0.25585819    -0.90605514    -0.02535860
O      -3.93154523     6.24269865    -3.96853632     0.21955666     0.96043444     0.26722753
O      -3.96135983     6.34569373    -7.97872745    -0.23091751     0.19121390    -0.08200987
O      -7.74264592     6.32185623    -3.85785175    -0.68476491     0.86219542    -0.80441406
O      -7.80008354     6.45314818    -7.94783971    -0.54125763    -0.94268297    -0.18920586
O      -3.93259862     4.30129798    -1.82364076    -0.14079951     0.18325705    -1.78555981
O      -3.81407958     4.45130929    -5.91336247    -0.33401067    -0.58723212    -0.56333332
O      -8.00489151     4.35100580    -9.91827852     0.24176021     0.32245810     0.16528708
O      -7.78933315     4.46537903    -5.88303904    -0.10361778     0.22511843    -0.68588276
O      -3.96673993     0.14645710    -9.85513487     0.71890084    -0.40413088    -0.77986415
O      -7.89951596     8.67241747    -6.01251272    -1.10493932     0.06455012    -0.37267900
O     -11.57006760     8.63475827    -6.04621799     1.12793667     0.33720683    -0.16028347
O      -7.70620005     0.15501479    -9.97674024    -2.73364786    -0.13142825    -0.31293154
O      -2.04019220     4.13293755    -3.79314586     1.01495645    -0.62267870    -0.57223584
O      -9.82087697     4.64856279    -4.06248197     0.22598845     0.11005926     0.06704815
O      -5.92668455     4.17148278    -3.82191898     1.05569720    -0.13504904    -0.79567057
O      -5.87501213     4.31176903    -7.90289887    -0.51244744     0.48165594    -0.43731130
O      -1.76861119     0.14128595    -3.92256199    -0.83476671     0.99037210    -0.48217018
O      -5.79335558     8.47816174    -8.03403463     0.01652844     0.55316072     0.08119087
O      -9.73678488     8.56742536    -4.00299737    -0.04359907    -0.32846917    -1.51319595
O      -5.86526401     0.52666444    -8.19978536    -0.08245553     0.32846156     1.78040070
