# total energy = -630.56433226 eV

CRYSTAL
PRIMVEC
        0.00285542     0.02004370    -7.95977623
       -7.82940539     0.00763210    -3.98158109
       -3.91729101     8.74642787     0.01461334
PRIMCOORD
56 1
Li     -4.06206776     2.40078388    -1.89042236     0.77920847    -0.11736811    -0.07049063
Li     -4.00878294     2.05115751    -6.00583102     0.40820027     0.00529966     0.44615202
Li     -7.68952328     2.33228763    -9.81058818    -0.55235612     0.15863444    -0.52370271
Li     -7.78751973     2.22295420    -5.92077073    -0.02539312     0.02608515     0.48462688
Li     -3.86415349     6.66445792    -2.12550463    -0.39934618     0.05515385     0.59129319
Li     -3.81735818     6.22065236    -5.86496854    -0.71432652     0.62035095     0.15470968
Li     -7.98735175     6.40001457    -9.86712503     0.44067724     0.15950314    -0.38772083
Li     -7.82174157     6.63836687    -5.86321294    -0.01477032     0.12286804    -0.01328818
Ti     -2.03560799     2.00886006    -3.95728018     0.32558268    -0.02954633    -0.83847089
Ti     -5.84214392     6.37406219    -8.08066964    -0.14169690     0.25099582     0.71445752
Ti     -7.95106888     4.38887917    -7.60345039     0.65860422    -0.34405912    -1.93314533
Ti     -7.64711169     4.46676352    -3.62969426    -1.00292649    -1.76199631     0.14748397
Ti     -3.80217062     4.28179608    -7.64269131     1.22440749     0.89973732     0.51936893
Ti     -3.85706591     4.47259620    -3.73052774    -0.21861710    -0.19274866     0.10081644
Ti     -2.23217667     0.02646730    -1.79629616     1.27144278    -1.00460081    -0.31550784
Ni     -5.85120985     2.46405934    -8.06315628    -0.78110368    -0.14983212     0.37110843
Ni     -5.83713305     2.32550083    -4.04074115    -0.46919258    -0.89096828    -0.06217783
Ni     -9.64600891     6.67956070    -7.94989248    -1.48650876    -0.44921685     0.83545560
Ni     -9.87686252     6.34067287    -3.99883820     0.98992771     0.52246631    -0.45679934
Ni     -1.96729964     2.04922835    -7.92116685     1.28686880     0.95726673     0.42446454
Ni     -5.99650150     6.74334967    -4.00030584     0.67063308     0.47840340     0.04815823
Ni     -1.92893691     0.01985631    -6.08811257    -0.06071634    -1.11021267     1.05757767
Mo     -9.90634503     8.74018079   -10.23831425    -0.32082750     0.50237456    -1.63009814
Mo     -5.89183758     0.03840345    -6.40089840    -0.16303223    -1.12748152     0.36944020
O      -1.89465380     1.89404209    -1.90646679    -0.74629052     0.15840972    -0.43449308
O      -1.91446880     1.86141243    -5.98206755    -0.24060300    -0.02465545    -0.14699056
O      -5.96165919     6.75572155    -1.97261346     0.53342475     1.02554747    -0.62571171
O      -5.77952140     6.88047805    -6.01263823    -0.46424330     0.73699293     0.42407144
O      -5.79103217     2.05079947   -10.17149948    -0.15603038    -0.74555492     0.34489094
O      -5.88482697     1.90344379    -5.91135688     0.01097952     0.44816049     0.57723844
O      -9.81689061     6.81259442    -9.83382122    -0.09433382     1.17654972     0.16503923
O      -9.82812259     6.80346200    -5.98114737     1.23952800     0.23092616    -1.03618904
O      -3.90437494     2.39787758    -4.08684909     0.13599082     0.14884588     0.92275365
O      -3.88503328     2.41228853    -7.83279426    -0.14713682    -0.49375912    -1.11514370
O      -7.74913493     2.42233380    -3.94754748     0.10047019     1.02093841     0.12691439
O      -7.81510339     2.39592058    -7.82190954    -0.37046943     0.73786963    -0.76576095
O      -3.68742351     6.37451731    -3.96357492     0.15950687     0.13965800    -0.03781731
O      -3.96486497     6.28748786    -8.04648214     0.79007253    -0.67372718     0.48725963
O      -7.97661666     6.36847287    -3.89212095    -0.16743231    -0.05596917    -0.35541897
O      -7.78449834     6.45945332    -8.03591177    -0.00535009    -0.94979273     1.55649342
O      -4.03394664     4.28448998    -1.96288076     0.29531361     0.10725290    -0.44913106
O      -4.13599851     4.36829372    -5.86163531     0.73047762    -0.17500010    -1.34805744
O      -7.83628942     4.44331102    -9.81597262     0.40032588    -0.35501923    -0.69428095
O      -7.77610425     4.39971230    -5.91047974     0.06246885     0.37885649     1.51458080
O      -7.90525630     8.71267738    -9.84275783    -1.52220589     0.43430389     0.05086455
O      -7.98744539     8.75374733    -6.08300385     0.36337608    -0.23574642    -0.20190070
O     -11.58043487     8.68689687    -6.05546833    -0.40175591     0.06734690     0.11069183
O      -7.73663505     0.25012058   -10.13153372     0.57636145    -0.98112125     0.28993494
O      -1.92591091     4.13231433    -3.93330483    -1.52088141    -0.73682424    -0.06302670
O      -9.67192015     4.38310267   -11.82691305    -1.97564255     0.77323720    -0.33569487
O      -5.84872872     4.93522045    -3.96946364     0.45326931    -0.47157570    -0.07496361
O      -5.86756879     4.38199084    -7.99416551    -0.09861810     0.51605276     0.20064293
O      -2.13570799     0.06184478    -3.94710328     0.59464490     0.46189558    -0.14731426
O      -5.72716633     8.48007083    -7.94176404    -0.41926186    -0.04982694    -0.73672460
O      -9.69732334     8.40650074    -4.06089944    -0.45502692     0.04798947     1.70558255
O      -5.98999125     0.62606230    -8.16921637     0.57891068    -0.09300448    -0.04228947
