# total energy = -630.37627309 eV

CRYSTAL
PRIMVEC
        0.00279571     0.02951795    -7.98606283
       -7.83802570     0.01298533    -3.99532603
       -3.92160916     8.71933433     0.00634407
PRIMCOORD
56 1
Li     -4.00621237     2.03016725    -1.94784081     0.27496079     0.65348540    -0.25149255
Li     -4.14605301     2.47652799    -5.83244375     0.43528118    -0.43028769    -0.45048337
Li     -7.91476978     2.23889882   -10.01808131     0.58930791    -0.43669379     0.22005415
Li     -7.96635274     2.56405774    -5.88161283     0.30732857    -0.21508447    -0.40191169
Li     -3.81146928     6.33307706    -1.95288514    -0.00524740    -0.00589168     0.31517875
Li     -4.02978879     6.70755223    -5.78795071     0.47342547    -0.11643196    -0.02703580
Li     -7.72795493     6.51199585    -9.98735014    -0.68734302     0.14337075     0.29674030
Li     -7.90469953     6.47797393    -5.98500271     0.14314453    -0.35011802     0.35932458
Ti     -1.98496617     2.44399613    -4.05046171    -0.59799615    -0.72488784    -0.65058145
Ti     -5.80473943     6.94115614    -7.95687322    -0.35813793    -2.00164374     0.35205272
Ti     -7.60548847     4.43837512    -7.83005242    -0.43054300     0.04751378     0.08647364
Ti     -7.96156199     4.29045151    -3.68991546     0.55632815    -0.21602314    -0.29244314
Ti     -3.93714851     4.36477865    -7.63889756     0.15793761     0.69107046    -0.90199139
Ti     -4.23712051     4.44014652    -3.80499053     0.02773878    -1.56954150     1.67444781
Ti     -1.67286277     0.10188631    -2.25789534    -0.27561445     0.07336920     0.17843296
Ni     -5.86991315     2.10012912    -8.00922583    -1.14194530    -0.01482074     0.30994539
Ni     -5.98315184     2.13602711    -4.06376852     0.00552659     0.34188227     0.69399330
Ni     -9.84357788     6.23786969    -7.91841274     2.54454596     0.48001299    -0.94707686
Ni     -9.77224472     6.40869679    -3.88136205     0.12676854     0.72746621     0.02941408
Ni     -2.06531148     2.14345101    -8.08576673     0.18267022     0.64709372     2.80817341
Ni     -5.93053144     6.77003011    -3.90986889    -0.42618060    -0.37499152    -0.55240336
Ni     -1.97221838     0.08057686    -5.96547802     0.04280014     1.92170443     0.99181107
Mo     -9.75394760     8.70257845   -10.29600823    -1.53755107    -0.60223969    -0.00563068
Mo     -5.73322168     0.04153541    -6.36869210     0.03948211    -1.17953174     0.32747580
O      -2.07120913     1.96478087    -1.87772959     0.40639603    -0.43612089    -1.95412932
O      -1.90834844     1.95481809    -5.94785807    -1.12782258    -0.14927047    -0.77090583
O      -5.87974591     6.94254261    -1.96460579     0.50730304    -0.75173881    -0.10102341
O      -6.05298170     7.02766459    -5.86091446     1.04594316    -1.19933260    -0.23442767
O      -5.83716698     1.94889652    -9.92121825    -0.57752154    -0.67306708     0.66365937
O      -5.98278643     1.87944823    -5.98723802     0.16792373     1.01470105    -1.32209556
O      -9.79802473     6.74245734    -9.99107722    -0.05311939    -0.21591602    -0.73965851
O      -9.74933049     6.92024045    -5.70675858    -0.31468018    -0.25297353    -0.63309263
O      -4.04122246     2.38786301    -3.96589134     0.91940684     0.26171327    -0.26303720
O      -4.07150806     2.47412583    -7.96225573     1.01379692    -0.70070176     0.21828274
O      -7.96639878     2.33268198    -4.02281390     0.10776377     0.02523552    -0.06142659
O      -7.86395488     2.39191307    -8.04588538     0.20706712     0.60514246     1.10187158
O      -3.75358100     6.25890913    -3.87521821    -2.61723009     1.14170480    -0.43740457
O      -3.89828127     6.36795920    -7.82606261    -0.36636593     0.75598418    -0.51681207
O      -7.79171540     6.17659786    -3.92270007    -0.26884585     1.10898454     0.21307403
O      -7.83300588     6.37507779    -8.03652163     0.37430504    -0.53826209     0.16747981
O      -4.05845788     4.36152494    -2.03981193    -0.26249688     0.27778523     0.11820798
O      -4.10610251     4.41832149    -5.88954815     0.65439844    -0.29110390    -0.06990400
O      -8.04935219     4.18607446    -9.90805151     0.44927590     0.86343823     0.16888052
O      -8.02022636     4.48389642    -6.09389730     0.28531363    -0.59660050    -0.34153105
O      -7.97673160     8.62599130    -2.20943310     0.86600529     0.36388589     0.98453522
O      -3.97308185     0.10420615    -6.26040137     0.28944916     0.51217715     0.46708280
O     -11.63666478     8.73353335    -6.21101532    -0.47734355     0.12947300     0.15734626
O     -11.58788612     8.71761053    -9.85243872     0.11786889    -0.11752376    -0.66668773
O      -2.12616166     4.25814291    -3.95955623     0.67900923     0.79520001    -0.35313694
O      -2.02091877     4.41205511    -0.06963084    -0.54621193    -0.42128254     0.23227224
O      -6.06230137     4.05063924    -4.12895186    -0.55420814    -0.51417849     0.36525079
O      -5.80344271     4.69181951    -7.88951988    -0.41659148     0.36224109    -0.47961709
O      -2.00984146     0.37599126    -4.04467162    -0.05754733    -0.32270964     0.22524897
O      -5.76741640     8.72162385    -7.93393378     0.02845178     0.33130027    -0.58385504
O      -5.83081736     0.26498525    -4.14019138    -0.68620211     0.11826595     0.09036029
O      -9.72128972     8.07961211    -8.06289220    -0.33125964     0.59606537     0.35313965
