# total energy = -629.91596354 eV

CRYSTAL
PRIMVEC
        0.00279571     0.02951795    -7.98606283
       -7.83802570     0.01298533    -3.99532603
       -3.92160916     8.71933433     0.00634407
PRIMCOORD
56 1
Li     -3.81593450     2.34188203    -1.85216193    -0.25084524     0.20335458    -0.73273588
Li     -4.04885414     1.93401504    -5.98768021     0.59697453     0.07220497     0.09284941
Li     -7.68092360     2.39692361    -9.98583867    -0.14399321     0.09957935    -0.35090834
Li     -7.64418919     2.24645702    -5.62784848    -1.08460216    -0.01617475    -1.47950125
Li     -3.92322297     6.33293859    -1.92658853     0.07803177     0.23975018     0.01617405
Li     -3.97665843     6.37243927    -5.78348529     0.61866696    -0.02429734    -0.38745391
Li     -7.94609091     6.61735454    -9.96012312     0.11273951    -0.56854143     0.16966166
Li     -7.74741571     6.77235396    -5.88273105     0.17602223    -0.30236697     0.13815131
Ti     -1.79914724     2.22660296    -4.21497496    -1.37743699    -1.70693498     0.13182116
Ti     -5.73698475     6.70340821    -7.93826404    -1.91616169    -0.43225424     0.25688012
Ti     -7.83996880     4.45965047    -7.69108153    -0.13171331     0.12970209    -1.51713662
Ti     -7.95387227     4.29629242    -3.73070529     0.70295948     1.74613295     0.46870855
Ti     -4.00862584     4.38682705    -7.67378572     2.13928549    -1.62604066    -0.27259565
Ti     -3.98259408     4.41611566    -3.78939751    -1.15604063    -2.39172054     1.73062638
Ti     -6.11552030     8.67619349    -2.10368025     0.68943016     0.65858190    -0.99563469
Ni     -5.85805466     2.38356804    -7.95738093    -0.17894184     0.44740554    -0.46357791
Ni     -5.88687109     2.22501361    -3.99396216     1.34166947    -0.26553667    -0.73977826
Ni     -9.90472804     6.58017499    -7.83587619     1.03920314    -0.42339401    -2.87418785
Ni     -9.79004726     6.63303265    -4.08845793     1.04802204    -2.42572492     0.53800325
Ni     -1.96599537     2.20645110    -8.06313112     0.61052496    -0.74052315     1.23785774
Ni     -5.89280113     6.48679978    -3.86948558     0.51052181     0.29032991    -0.63648737
Ni     -1.80268108     0.03232921    -5.97685341    -1.26531586    -1.07172829    -0.18631917
Mo     -6.05571982     0.03852330   -10.28991348     1.30151097    -0.05672187     0.18253300
Mo     -9.87990193     8.59960182    -6.47778494    -0.44490675     2.29522912     2.15744414
O      -1.83446378     1.90827904    -1.88647209    -0.52121825    -0.87981664    -0.60333339
O      -1.94734886     1.88735765    -6.12272699     0.19209415    -0.02709364     0.42336483
O      -5.93724707     6.71202073    -1.94348882     0.61043814     0.45766813    -0.17216293
O      -5.74132571     6.85556521    -5.92360586    -0.72593569     0.66403215     0.30867309
O      -5.85215026     1.97773161   -10.15750939     0.92045484    -0.14042748     0.54423384
O      -5.90795952     1.91777337    -5.85756539     0.16957120    -0.42915916    -0.70936846
O      -9.87265119     6.93389678    -9.71048797    -0.32757562     0.06967417     0.27573902
O      -9.73110264     6.77499171    -6.09900627    -0.61242193    -1.55319997     1.97209854
O      -3.83023619     2.40811703    -4.06991736    -0.50977155     0.27559369     0.62833485
O      -3.89533712     2.40647932    -7.96778094    -0.05665813     0.75712618     0.39157290
O      -7.77787138     2.33678955    -3.86878143    -1.03058064     0.44923800    -0.07697426
O      -7.74445925     2.46198091    -8.18441927     0.01436782     0.23211946     1.27674141
O      -3.97424810     6.32948762    -3.92687643     0.73134655     0.12835446     0.40053754
O      -3.90383112     6.32242038    -7.83658937     0.29387215     0.69922894    -0.82097175
O      -7.69015693     6.40438933    -3.94752167    -1.53079779    -0.83723693    -0.36143330
O      -7.80824072     6.36744329    -7.96317910    -0.30080794     0.03391379     0.61171894
O      -3.82383408     4.42354349    -1.92161079     0.08149514    -0.23428415    -1.88083614
O      -3.84817502     4.40773581    -5.91403035     0.40211406     0.24383882     0.30499040
O      -7.80710796     4.48337752    -9.95891382    -0.03692734    -0.43947817    -0.17227929
O      -7.63765214     4.34356763    -5.99892241    -0.38208112    -0.25841025     1.68350516
O      -7.94368325     8.63293493   -10.04284040     0.48951925     0.83788571     0.14387072
O      -8.06566123     8.65369677    -6.01009129    -0.60119582     0.57377792    -0.60116794
O      -3.85205837     8.56656927    -2.08817562     1.07346481     0.01908850    -0.20874926
O      -7.75170824     0.16747544   -10.04329324    -0.96375855    -0.09709325     0.11385879
O      -1.86492881     4.01439174    -3.96428095    -1.00923173     1.97739875     0.18765602
O      -9.70389768     4.76605201    -4.02515691    -1.66953199    -0.09337312    -0.14625326
O      -5.93567885     4.19053396    -3.95387436     1.70965803     0.44767123    -0.01759000
O      -5.83746406     4.37748849    -7.91099389    -0.22934175    -0.14156894    -0.39530213
O      -1.90415367     0.20628652    -4.04391215    -0.14654553     0.56703991     0.95738123
O      -5.69543434     8.46905159    -7.97600630    -0.45870140     1.16399619    -0.27765049
O      -9.98241539     8.39531754    -4.09199325     0.48847195     1.54132592     0.09868949
O      -6.07318239     0.59807746    -8.15727879     1.06898898    -0.47892984    -0.42673549
