# total energy = -630.84537796 eV

CRYSTAL
PRIMVEC
        0.00279571     0.02951795    -7.98606283
       -7.83802570     0.01298533    -3.99532603
       -3.92160916     8.71933433     0.00634407
PRIMCOORD
56 1
Li     -3.95440500     2.43794444    -1.86986946    -0.15471124    -0.25766741    -0.09120379
Li     -3.82000497     2.18047420    -6.12662294    -0.50894025     0.04593573     0.45138103
Li     -7.76807225     2.20807491    -9.87860992    -0.36988844     0.29777244    -0.31282865
Li     -7.76852600     2.24867820    -5.81889793    -0.43955156     0.44422135    -0.09319913
Li     -3.88310868     6.27100386    -2.02103201     0.12794803     0.78757273     0.03470420
Li     -3.81291707     6.48535203    -5.91787788    -0.66217621     0.17925804    -0.12394517
Li     -7.86828799     6.75607049    -9.88648797    -0.12487054    -0.38195544    -0.54629493
Li     -7.78069032     6.45312115    -5.89716293    -0.15535409     0.05188899    -0.44261444
Ti     -2.03686771     2.17829326    -4.03125968     0.23645457     0.23297018    -0.65656525
Ti     -5.91114564     6.59850517    -8.07038366     0.32573661     0.06831543     0.73318126
Ti     -7.94481954     4.41276648    -7.70281285     0.73938198     0.00691371     0.55287632
Ti     -7.92171555     4.44486192    -3.70940438     0.51354725    -0.68449088     1.20230398
Ti     -3.86721048     4.44541002    -7.74482852    -0.69451038    -0.57449816    -0.08608551
Ti     -4.11874484     4.33367988    -3.81760426     1.25367025     1.42249156    -0.48215751
Ti     -1.73289631     0.04970031    -2.03093678    -0.56097588    -0.89972194     0.87938661
Ni     -5.90585033     2.08549608    -7.88084023     0.40243959     0.76449806    -0.36482589
Ni     -5.95524895     2.32321643    -3.90494909    -0.05594955    -1.57557710    -0.36595733
Ni     -9.83319163     6.37646068    -8.03561722    -0.49062351    -0.34651655    -0.36496598
Ni     -9.79156566     6.66080505    -4.00037862     0.19730655    -0.43977486     0.52833854
Ni     -1.94746281     2.32165611    -8.07167797     0.09764180    -0.45892734     1.03214363
Ni     -5.87548501     6.62944728    -4.00710030    -0.19212356     0.22988691    -0.12961657
Ni     -5.80441583     8.69919010    -5.94805745     0.11752862     0.42673005    -0.34527090
Mo     -9.80802563     8.69841349   -10.30362874    -1.47695757     0.02057681     0.37284806
Mo     -9.76318454     8.73857006    -6.38038312     1.14350634     1.40483822     0.53593848
O      -1.96967290     1.90654254    -2.02118918     0.14724954     0.81964971     0.34689302
O      -1.90435123     1.88208278    -5.97654509    -0.26152433    -0.46867939     0.63558050
O      -5.93803143     6.76078656    -1.99808838     0.30051659     0.27577923    -0.48077167
O      -5.81891988     6.87140811    -5.89005205    -0.55537626     0.15439020    -0.17342098
O      -5.92726558     1.94803498    -9.70492136     0.48339702    -1.09314496    -1.05705020
O      -5.97961459     2.02544506    -6.05052504     0.77582599    -1.37802502     0.13516669
O      -9.78883539     6.68575582   -10.05014955     0.20701835     0.86537744    -1.11386827
O      -9.85697600     6.92177919    -5.84787510     0.47137372    -0.50836507    -0.15575564
O      -3.94033350     2.36550295    -3.87127347     0.08655299     0.02082887    -0.74316813
O      -3.90072989     2.41357747    -7.97208951    -0.36829568     0.81644829    -0.19950522
O      -7.88849562     2.41206488    -3.84053957     0.08021023     0.29392883    -1.06390645
O      -7.78721367     2.51442819    -7.96575723    -0.95494392    -0.91607783     0.71447807
O      -3.92849587     6.34327878    -4.03487882    -0.34032693    -0.90946287     0.44366498
O      -3.85737356     6.41304119    -8.00407091    -0.71363959    -0.31851399     0.07675367
O      -7.87764291     6.33900176    -4.10513924     0.62731808     0.86439264     1.39552856
O      -7.93122724     6.38889734    -8.03372814     0.83435522    -0.63357699     0.71067811
O      -3.70119212     4.49261597    -2.11295602    -0.72305244    -0.99852281     1.16963972
O      -3.93603045     4.37603289    -6.00639182     0.62950661    -0.09893228     0.54697018
O      -7.77168347     4.27975869    -9.92836222     0.04612009     0.88462309    -0.25918298
O      -7.84190589     4.44376509    -5.89952640     0.06122030    -0.44688615    -1.84385536
O      -8.03548983     8.70988031   -10.07703396     0.45762209    -0.06486369     0.03362054
O      -4.07872198     0.14227203    -6.16978528     0.08548043    -0.22870241     0.46265257
O     -11.69082462     8.69657624    -6.04806316    -0.27549315     0.62705154    -0.20113634
O     -11.69812485     8.62418049   -10.03456998     0.75060613     0.37798909     0.33154903
O      -2.03812902     4.27836403    -4.11490223     1.07368565    -0.11293654     0.26940774
O      -9.75317632     4.35003440    -4.08675202    -1.37485115    -0.56217069     0.33973598
O      -5.91669832     4.10534050    -3.92745474    -1.20473051     1.14195391    -0.26423894
O      -5.86584557     4.67810467    -7.80354321     0.00335009     0.81361187    -1.06960299
O      -2.04573497     0.23996326    -3.91977133     0.31482754     0.37977161    -0.75959006
O      -5.88787387     8.55348991    -8.00786580     0.00510574    -0.58784443    -0.46362071
O      -6.04578853     0.45412220    -4.06830597     0.61193895     0.05116474    -0.42303574
O      -9.79564002     8.18220190    -8.14121211    -0.39375809     0.35336908     0.73334520
