# total energy = -630.72140462 eV

CRYSTAL
PRIMVEC
        0.00285542     0.02004370    -7.95977623
       -7.82940539     0.00763210    -3.98158109
       -3.91729101     8.74642787     0.01461334
PRIMCOORD
56 1
Li     -3.89637615     2.44560246    -2.00972769    -0.23767955    -0.24015110     0.59767287
Li     -4.04243496     2.04355591    -5.87350403     0.43367836    -0.12930082    -0.71455466
Li     -7.78343683     2.09260362    -9.76613137    -0.05620412     0.18637510    -0.67572313
Li     -7.67097677     2.39974380    -5.85080978    -0.43586331    -0.03027938    -0.18441577
Li     -3.97376399     6.55855892    -1.99068935     0.40921223    -0.28198590    -0.08783535
Li     -3.99191035     6.58659062    -6.07209549     0.36513059    -0.13405173     0.85087254
Li     -7.79336642     6.58774431    -9.97187076    -0.12443129    -0.07388780     0.36380029
Li     -8.00548764     6.33363824    -5.84686989     1.02622886    -0.11713749     0.07356954
Ti     -2.02916327     2.26549990    -4.00119241     0.31731130    -1.33675001     0.44831913
Ti     -5.95162552     6.65504218    -7.86752707    -0.24915741     0.04392556    -0.38288631
Ti     -7.79557575     4.36747621    -7.81744878     0.10850051     1.18787988     1.54633975
Ti     -7.81853443     4.34945519    -3.62101696    -1.16824803    -0.14538530    -1.20007055
Ti     -3.83264542     4.37405013    -7.64999498     0.55776193    -1.02931964    -0.97521822
Ti     -3.93575584     4.44842056    -3.84302011    -0.38847255     1.86079427    -0.20494221
Ti     -6.02583589     8.70289222    -1.99559075    -0.52867768     0.77159528    -1.09087703
Ni     -5.79988166     2.40323467    -8.00902243     0.92461870    -0.83478315    -0.11729210
Ni     -5.83658551     2.45553009    -3.99015614    -1.35238394    -1.46759263    -0.27326573
Ni     -9.76195995     6.64981701    -7.93212006     0.01864138    -0.11479272     0.34853851
Ni     -9.77062336     6.51619363    -4.02810232     0.23964185    -0.60081801     0.24768863
Ni     -1.95031931     2.03184993    -7.94263727     0.34171248     0.60385235     0.06619903
Ni     -5.90456466     6.58401106    -3.98245905     0.04417751    -0.14743553     0.66337039
Ni     -5.92527961     8.70365954    -5.88408652    -0.32853372    -0.31672420     0.27826785
Mo     -9.89335554     8.74655522   -10.22625129     1.37340199     1.15851728     0.45085865
Mo     -9.81512822     8.63703562    -6.33413646    -0.24880038     0.82929939    -0.97831942
O      -1.88003682     1.89558308    -1.94419265    -0.25953464     0.37649585    -0.18873437
O      -1.95048351     1.84641055    -5.90515174     0.04586456    -0.31464974    -0.52859157
O      -5.81598681     6.80026224    -2.03884450    -0.58023799    -0.26282040     0.44381770
O      -5.95611216     6.79281475    -5.80705055     0.28418666     0.92091264    -1.74155269
O      -5.86807781     1.97670791   -10.08708804     0.55018778    -0.02003299    -0.07120651
O      -5.86153320     1.80786971    -5.88038219    -0.13571318     1.09174753     0.45540876
O      -9.65684375     6.94217892    -9.76559700    -1.01974748    -0.50077474     0.00006947
O      -9.75979310     6.72529285    -5.99051885    -0.82832084     0.05232159    -0.40066090
O      -3.93842063     2.50999292    -4.03417052     0.66487844    -1.37580140     0.44762082
O      -3.86748137     2.37926467    -7.94456194     0.20338954     1.14293360    -0.06122842
O      -7.81327790     2.41625287    -3.90604285    -0.18317327    -0.10031638    -0.00116971
O      -7.61591364     2.54525370    -7.88528219    -2.09595546    -2.31578138    -0.64213103
O      -3.72577445     6.38935097    -4.12559861    -1.27807556    -0.09680096     0.58948978
O      -3.92570869     6.25672714    -8.03874038    -0.71435136     1.13917218     0.97566127
O      -7.85780691     6.31724695    -3.85377654     0.23720480     0.41964772    -0.86320589
O      -7.92090991     6.42031090    -7.96150935     2.12854523     0.02026715     0.27107856
O      -4.13961934     4.44894261    -2.11935832     0.50999329    -0.31253271     0.70893822
O      -4.10784594     4.40577546    -5.92363934     0.25604548     0.10247719    -0.19845356
O      -7.88526347     4.44157914    -9.85251700    -0.20674190     0.11010593     1.00908116
O      -7.75442236     4.42932100    -6.03508741    -0.47653170     0.26586807    -0.24239285
O      -7.86775994     8.74180962    -9.93401450     0.96676958     0.33567734     0.00923272
O      -8.01051153     8.72899751    -6.09501943     0.35683096    -0.20549447     0.37397720
O     -11.61855495     8.68985380    -5.93077888     0.44017980    -0.38296781    -0.26882208
O     -11.63523250     8.76511205   -10.06840170    -1.02966416    -0.24117329     0.11726672
O      -1.97782903     4.13347374    -3.92081452     0.25603090    -0.36783275    -0.39117720
O      -9.73447500     4.59901760    -4.00273944    -1.26903550     0.12401737     0.06270547
O      -6.00995057     4.35838833    -4.04240275     1.99033925     0.63522900    -0.05290544
O      -5.84784956     4.37015000    -8.07368976     0.60221347     0.42007939     0.39697421
O      -1.94641703     0.20651383    -3.97242224     0.03937783     0.40840360     0.48566276
O      -5.85697008     8.48344416    -7.91217608    -0.02805510    -0.67371807    -0.04916440
O      -9.66893838     8.47563649    -4.01204793    -0.27327502    -0.39672770    -0.79187509
O      -5.88016181     0.51146984    -8.15466199    -0.24341095     0.26931662     1.04206596
