# total energy = -630.36331782 eV

CRYSTAL
PRIMVEC
        0.00285542     0.02004370    -7.95977623
       -7.82940539     0.00763210    -3.98158109
       -3.91729101     8.74642787     0.01461334
PRIMCOORD
56 1
Li     -3.95505089     2.29055041    -1.88980613     0.33780953     0.05837533     0.09757712
Li     -3.92237189     2.39251246    -6.04140386    -0.27173511     0.34769698    -0.09892127
Li     -8.03651430     2.06235261    -9.91798874     0.84285702     0.22652704     0.33244980
Li     -7.79200804     2.21096686    -6.06080367    -0.28288850    -0.06799642     0.85350284
Li     -3.89362216     6.43688445    -1.80451149     0.00913925     0.03627043    -0.45150436
Li     -3.84914203     6.53882146    -6.00268234     0.17395208     0.16333649     0.36230210
Li     -7.77218082     6.80342674    -9.92374667    -0.85881388    -0.31948132     0.10831909
Li     -8.00211072     6.17215484    -5.73665645     0.37050895     0.45019150    -0.55618402
Ti     -2.17264357     1.97106091    -4.03698151     1.29635947     0.38907251     0.69272898
Ti     -6.01368585     6.55482172    -7.86843587     1.00191385    -1.43699974    -0.20718069
Ti     -8.10170244     4.34796836    -7.65502010     0.68094752    -0.99339179    -2.27345369
Ti     -7.89074285     4.24814769    -3.55285243    -0.34181162     0.55202153    -1.52443933
Ti     -3.71602533     4.52005522    -7.72816007    -2.10183290    -0.50102864     0.30352725
Ti     -3.98414372     4.48696589    -3.68759003    -0.29109074    -1.31446845     0.17132195
Ti     -5.64506946     8.58064292    -2.11968504    -0.66623789     1.37623504     0.08407983
Ni     -5.90863242     2.46662691    -8.02859884     0.28252949     1.42120568     0.26414148
Ni     -5.98328909     2.13695629    -3.94535194     0.45789672     0.15642730     0.56747034
Ni     -9.97761228     6.85844549    -7.86991384     1.16023024    -0.27217863    -1.56789096
Ni     -9.67952085     6.59278083    -3.99627443    -0.66859654    -1.48992816     0.50037636
Ni     -1.91726966     1.99116426    -8.01622389    -1.49234387     0.02984419    -0.05984774
Ni     -5.95278118     6.46369389    -4.01871851     0.57473540    -0.07967809     0.26284656
Ni     -5.80079994     8.71921741    -6.10363715    -0.26198223    -1.22199916     0.59579801
Mo     -5.82986737     0.18394908   -10.30239747    -1.44517544    -1.23458556     0.76413052
Mo     -5.67700558     0.02133302    -6.25580654     1.06733795     1.35986341    -0.64441649
O      -2.02428419     1.85153655    -2.05934680     0.05065207    -0.55059680     0.17187418
O      -2.04685216     1.79339046    -6.10831284     0.09109625     0.14484513    -0.21986418
O      -5.88018772     6.71343948    -2.02772828    -0.14288129    -0.00324515     0.13168638
O      -5.72152654     6.84172719    -6.01962099    -0.75185800     0.15508654     0.34553091
O      -5.88737040     2.01977579    -9.98593547    -0.42815230     1.50625602    -0.72207337
O      -5.91156646     1.88289024    -5.74282746     0.18725502    -0.24728579    -0.68018425
O      -9.79873717     7.04333056    -9.74216666    -0.13770022    -0.50282928     0.35051129
O      -9.83177831     6.91623640    -6.07597260    -0.50370041    -1.48892454     1.10186302
O      -3.97170978     2.25457578    -4.07822919    -1.44232743     0.79602432     0.82685932
O      -3.98753009     2.57129033    -7.97440595     0.56010892    -0.33080971     0.15767101
O      -7.94316824     2.31772709    -3.93088483     0.94973951     0.35108003    -0.18887903
O      -7.89532429     2.35796126    -7.87400645     0.25576932     0.88351507    -0.90615572
O      -4.01511975     6.31720774    -3.98718797     0.27291162     1.20577717     0.34114790
O      -3.81503057     6.52389061    -7.93205344    -0.49997166    -0.93140353     0.14468551
O      -7.79921158     6.25792453    -3.89145327    -0.23038622     0.24368659     0.06503504
O      -7.89457983     6.33472370    -7.84249133    -0.59388269     0.13277125    -0.31255741
O      -3.72248567     4.46276008    -1.91009347    -0.50922602    -0.27066510    -1.89745120
O      -3.83813828     4.46218214    -5.95520186    -0.01420497    -0.24233346     0.36333898
O      -7.88068062     4.24383972    -9.80589420    -0.23358635     0.07125202     1.21796450
O      -7.77268857     4.33938338    -5.96427385     0.03195129    -0.31436884     1.18375067
O      -4.08107395     0.15022926    -9.92153476     0.27123873    -0.36662395    -0.28340092
O      -7.81955130     8.59117065    -6.09254053    -1.25936683     0.54781450    -0.28815627
O      -7.82368680     0.04695826    -6.02868802     1.29321528    -0.52246128    -0.04454199
O      -7.77111054     0.13339046    -9.99550687     1.01226728    -0.11281479    -0.44046454
O      -2.07316022     3.99533413    -4.02092874    -0.57295846    -0.17002084     0.22776326
O      -9.75545580     4.74251552    -4.05474154     1.86367378    -0.15325637     0.29001570
O      -5.98263979     4.42313486    -3.79111584     1.52195598     0.10737153    -0.61972443
O      -5.78654700     4.47348648    -8.05932994    -0.84444571     0.55435899     0.50466529
O      -6.04101287     8.74939556    -4.08987380     0.39807979     0.82880989     0.88782079
O      -6.02840624     8.40271294    -8.08163909     0.38797209     0.59923272    -0.28839378
O      -9.63284222     8.36931863    -4.09413424    -0.36984952     1.12890307    -0.42970903
O      -5.86358347     0.68956922    -7.96882005    -0.12016835    -1.38390790     0.37947190
