# total energy = -630.73730357 eV

CRYSTAL
PRIMVEC
        0.00279571     0.02951795    -7.98606283
       -7.83802570     0.01298533    -3.99532603
       -3.92160916     8.71933433     0.00634407
PRIMCOORD
56 1
Li     -3.87422436     2.43155885    -1.96093484    -0.26050777    -0.27845564     0.48510689
Li     -3.99378373     2.13562034    -6.00980219     0.08032676    -0.00170004    -0.00366450
Li     -7.89039450     2.48503301    -9.94538073     0.17297631    -0.74688927     0.13336416
Li     -7.79449566     2.04730950    -5.82757226    -0.12447506    -0.10423069    -0.57684143
Li     -3.83396535     6.44606327    -2.01307113    -0.53450703     0.07029777     0.04069967
Li     -3.98156405     6.67978297    -5.99084067     0.29779605    -0.35833336     0.74894493
Li     -7.89263586     6.20135115   -10.00740385    -0.02570951     0.59902932     0.50526319
Li     -7.67976648     6.63070504    -5.98564044    -1.34119967    -0.45035510     0.55461068
Ti     -2.04508621     2.22331023    -3.94954126     1.02570976    -0.04506844    -0.78312282
Ti     -5.85871708     6.70792792    -8.07317813    -0.21960683    -0.39955948     0.65816359
Ti     -7.79415027     4.35927928    -7.69157012     0.11024111     0.00066629    -0.47371067
Ti     -7.86873757     4.33201092    -3.79235897     0.02201050     0.47690318     0.32588591
Ti     -3.82038575     4.37055446    -7.77814554     0.05850624     0.00093324     1.23213310
Ti     -3.93924050     4.44471055    -3.81524989    -0.31535911     1.17896926    -0.38403289
Ti     -6.15071682     8.67140715    -2.13721028    -0.33505391     0.05490786    -0.37289966
Ni     -5.89196337     2.38160224    -7.96928123     1.28953787    -1.11237860    -0.31106013
Ni     -5.82343595     2.34060031    -3.98018893    -1.09178803    -0.53045442    -1.00350553
Ni     -9.73647780     6.57630340    -7.94517687    -0.71564877     0.10060598    -0.31866825
Ni     -9.78794896     6.54145685    -3.93098308     0.10321783    -0.46524185    -0.37646786
Ni     -1.93657494     2.11604956    -7.86718929    -0.21243649    -0.16961621    -0.83964735
Ni     -5.89727629     6.43336855    -4.02221942     0.20802659     0.64852244     0.12281760
Ni     -5.95141096     8.65702506    -5.89079592     0.12678958     1.87548206    -0.26683335
Mo     -6.00088658     0.13524386   -10.31360187    -1.13315383    -0.62663938     0.73099332
Mo     -9.77309579     8.59743783    -6.38218371     0.35475493     0.46045693    -1.65334194
O      -1.89128563     1.84715901    -1.93871686    -0.54336659     0.09705349    -0.12629930
O      -1.96586104     1.90014666    -6.00471561    -0.24220323    -0.68817435     0.90624494
O      -5.82869767     6.73798502    -1.98409562    -0.18422798    -0.17648821    -0.34828083
O      -5.93105091     6.87041697    -5.85049402     0.82940077    -0.35997097    -0.34992324
O      -5.90260287     1.99138334   -10.08532732     0.76430519     1.37287261    -0.08510168
O      -5.94210080     1.92548366    -5.93495687     1.21988110    -0.48308559     0.44650125
O      -9.68016546     6.87851697    -9.84840919    -0.82865804     0.85409196     0.08935145
O      -9.88021910     6.67020757    -6.06500968     1.45264663     0.76447140     0.39433049
O      -3.92748762     2.38688794    -3.98046570     0.21970282     0.19360451     0.06569680
O      -3.89715199     2.44608935    -7.99430710     0.37652052    -0.01364975     0.17980938
O      -7.84511156     2.40841015    -4.02923775     0.21701033     0.19239529     0.78125156
O      -7.74538737     2.45869705    -7.79448628    -1.52358133    -0.58544960    -1.01253754
O      -3.87540571     6.45039867    -4.07207416     0.16013046    -1.52813268     0.67596106
O      -3.99056904     6.41389905    -7.80460897     0.29143409    -0.12720320    -1.60759894
O      -7.83185772     6.38883836    -3.92679759     0.19191148    -0.92673370     0.00867159
O      -7.77536577     6.32693955    -7.91722298    -0.05502440     0.39394731    -0.74378810
O      -3.80488666     4.38349133    -2.04214790    -0.60361691     0.38861962    -0.32546187
O      -3.84261547     4.46780223    -6.02088123     0.02485352    -0.57357803     0.30848601
O      -7.90760128     4.33213030    -9.94296657     0.21164057     0.38198346    -1.11848525
O      -7.96067029     4.55670913    -5.99478247     0.35510483    -0.14240174     1.20420411
O      -7.95691204     8.72446237    -2.14887914     0.96196509     0.43870752     0.09657655
O      -7.95228047     8.63580129    -5.84981965    -0.84082786     0.21532444    -0.93240426
O     -11.54453653     8.60637085    -6.26664674    -0.74225656     0.36542513     0.76192137
O      -7.77815105     0.22082431   -10.02449886     0.31192813    -1.15801543    -0.20251745
O      -1.98989866     4.16312262    -3.91703451     0.65284116    -1.12951689    -0.77082184
O      -9.75063785     4.62691897    -3.97566073    -0.32184774     0.53824970    -0.35038558
O      -5.90171077     4.42901998    -4.21039628     0.30100633    -0.05595009     0.84007357
O      -5.78638145     4.24779671    -8.10599590    -1.08120840     0.87073021     0.54995518
O      -2.01563562     0.17361175    -4.00891586     0.37587113     0.84510672     0.62888798
O      -6.00478258     8.48403490    -7.97023833     0.37374408     0.46406279    -0.41884281
O      -9.90988293     8.41925484    -4.08263641     0.15202622    -0.26503751    -0.40785010
O      -5.77069193     0.50096059    -8.24277198    -0.01343689    -0.03097883     2.66984075
