# total energy = -630.87569817 eV

CRYSTAL
PRIMVEC
        0.00279571     0.02951795    -7.98606283
       -7.83802570     0.01298533    -3.99532603
       -3.92160916     8.71933433     0.00634407
PRIMCOORD
56 1
Li     -4.03542722     2.21537672    -1.95322516     0.11672459     0.13509414    -0.09535423
Li     -3.96891065     2.01633989    -5.84387755    -0.07032503     0.34546264    -0.36268848
Li     -7.86664702     2.32391111   -10.00687980     0.16507572     0.13470032     0.07678756
Li     -7.93718362     2.41913066    -5.96118424    -0.02119019     0.08119049     0.05077447
Li     -3.94192467     6.43116206    -2.11093217     0.09558109     0.18076479     0.56609410
Li     -3.84199982     6.30912876    -5.78881257    -0.12470441     0.02466547    -0.50510044
Li     -7.67980312     6.49829241   -10.00573919    -1.11357142    -0.18538675     0.24284910
Li     -7.76513578     6.72945958    -5.99416877    -0.15930120    -0.34435487     0.39989278
Ti     -1.91410755     2.16651618    -4.13673588     0.17910614     2.12304813     0.46222784
Ti     -5.73897074     6.62565239    -8.03538397     0.53848547     0.43344755    -0.34968997
Ti     -7.72683398     4.53346958    -7.77354612    -1.46677788    -1.60223918     0.38074800
Ti     -7.79092855     4.41499441    -3.76250184     0.05161073    -0.12896837     0.60930274
Ti     -3.76076994     4.34975961    -7.71254277     0.18019070     0.85787403    -0.56934302
Ti     -3.98507346     4.32537141    -3.75453059     1.07437087    -1.41980333     0.07698375
Ti     -2.24098245     0.06094363    -2.15774992     0.96732600    -1.24335276     1.37510834
Ni     -5.79561919     2.53602568    -7.99205387    -0.90172909    -1.52025225    -0.62557465
Ni     -6.11516893     2.12985380    -4.07255338     1.09714878     0.01852480     1.15195425
Ni     -9.79278956     6.52059809    -7.81696381     0.07608483    -0.27885388    -0.12189193
Ni     -9.79894880     6.49415512    -4.09812039     0.82373476     0.09124032     0.41275508
Ni     -2.07620621     2.13518754    -7.96366065     1.14019967    -0.28272702    -0.08298076
Ni     -5.88746759     6.44011761    -4.05302424     0.20655360     0.43004005     0.70453241
Ni     -5.87932914     8.63832039    -5.98609186     0.26913242     0.32576263    -0.15062963
Mo     -9.98659624     8.72016302   -10.11232706    -0.87284658     1.11976109    -0.44617525
Mo     -5.85951929     0.03398924    -6.34856894    -1.27391066    -2.01150635     0.22291332
O      -1.98304904     1.91367168    -1.91992173     0.03656541     0.12101705    -0.11721699
O      -1.95891712     1.71573443    -6.05082166    -0.45678366     1.63919363     0.30152047
O      -5.89502030     6.71807807    -2.07175936     0.24367144     0.72465961     0.01009930
O      -5.77659152     6.82186131    -5.95313161    -0.29535284    -0.36009077    -0.07091624
O      -5.98375649     1.99610310   -10.13984523     0.48956321     0.30215753     0.01705616
O      -6.01876828     1.91371139    -5.91642886     0.55467225     0.59708800     0.22284604
O      -9.76950014     6.95320378    -9.68640843    -0.27143833    -0.51037708     0.14340833
O      -9.79156466     6.70929726    -5.96866592     0.69780972     1.36733968    -0.87665340
O      -3.89301527     2.34054891    -3.92711038     0.62644830     0.02722890    -0.68528969
O      -3.92642541     2.47961486    -7.86025301    -0.14475243    -0.66124636    -0.79304553
O      -8.04481799     2.41645826    -3.94099589     0.46728299     0.36241080    -0.54197198
O      -7.75539636     2.47367681    -8.00069955    -0.21977953     0.23898771     0.00240093
O      -3.98064611     6.20162126    -3.96661349     0.70417343     1.49434084    -0.35273702
O      -3.81357768     6.38849174    -8.06035089    -0.82115984    -0.19755478     0.72648998
O      -7.82167163     6.38378130    -3.99933033    -0.16759474    -0.33413662     0.05442392
O      -7.78466213     6.42178134    -7.94072853    -0.06616437     0.51008004    -0.33671523
O      -3.92421036     4.41563946    -2.01644904     0.17942304    -0.58095352     0.58190553
O      -3.76179334     4.29102363    -5.97993988    -0.26058190     0.65371691     0.89453762
O      -7.77163580     4.39944378    -9.95636773    -0.21765954     0.29692966    -0.89580928
O      -7.95194090     4.49200882    -6.03110193     0.66368379    -0.53782376     0.14670775
O      -4.02261209     0.08520207    -2.05815789    -0.16274115    -0.23647484    -0.04898623
O      -3.94286367     0.04740275    -6.01660666    -1.44212029    -0.78473328    -0.04345429
O     -11.59025895     8.54267605    -6.08892221     1.53326911     0.58314611    -0.50531803
O      -7.85553270     0.12567659   -10.05959161     0.81429521    -0.97441322     0.61803294
O      -9.70430514     4.19880198    -8.06974703    -0.96156442    -0.85722546    -0.01180064
O      -9.73803209     4.56640741    -4.04299698    -0.16539685     0.64366699    -0.04832803
O      -5.87582048     4.23278606    -4.05738999    -0.97125356    -0.48477386    -0.52998347
O      -5.75402726     4.59009658    -7.97853936    -0.46434111    -1.09762123     0.23272857
O      -1.85191085     0.26818977    -3.95853237    -0.12340877    -0.42332861    -0.66837748
O      -5.79328952     8.42950806    -8.07007870    -0.35110553     0.60410419    -0.23227220
O      -5.96602972     0.02220538    -3.94234430     0.36536500    -0.15629701    -0.71344060
O      -5.69934853     0.59375105    -8.11235690    -0.76133002     0.81114544    -0.13911433
