# total energy = -631.00602361 eV

CRYSTAL
PRIMVEC
        0.00285542     0.02004370    -7.95977623
       -7.82940539     0.00763210    -3.98158109
       -3.91729101     8.74642787     0.01461334
PRIMCOORD
56 1
Li     -3.90627630     2.12119628    -1.97959262     0.38857573     0.57160915     0.17967125
Li     -3.96963542     2.00992963    -5.80869845     0.10335800    -0.06004690    -1.01844152
Li     -7.70709856     2.45516365    -9.86113540     0.07481705    -0.68003457    -0.47790028
Li     -7.63951343     2.26728517    -5.96470803    -0.58835340     0.01799842     0.32156677
Li     -3.96880882     6.39039461    -1.84878313     0.02603603    -0.12297294    -0.39966497
Li     -3.80694266     6.40590061    -5.94821485    -0.48314483     0.24089635     0.49358872
Li     -7.92732792     6.56995974    -9.88292255     0.50569633    -0.33393118     0.05124690
Li     -7.78124996     6.34915308    -5.86508126    -0.11846905     0.40696274     0.12189806
Ti     -1.91646294     2.17525748    -4.06735794    -0.48554901     0.07530563     0.35885023
Ti     -5.87119649     6.87449326    -7.89148304    -0.45465400    -1.06175174    -0.18028458
Ti     -7.83759420     4.41616817    -7.67269173     0.77927267     0.65359944     0.60990591
Ti     -7.81541965     4.26217387    -3.71609075     0.00687412     0.89539447     0.00731535
Ti     -3.83222332     4.33699625    -7.63378602    -0.71984154    -0.18222103     0.04389848
Ti     -3.91036150     4.40212324    -3.73843973    -0.51419825    -0.25882072    -1.18520900
Ti     -2.15340551     0.04421893    -2.05735699     0.36294680    -0.45445877    -0.95958909
Ni     -5.81187623     2.39185531    -7.95157349     0.28254024     0.72885955     0.07145397
Ni     -5.84386485     2.29821899    -4.05834730     0.19319018    -0.19514102     0.10011081
Ni     -9.88515841     6.56265011    -7.91138830     1.21017664    -0.09581891     2.04068023
Ni     -9.71349401     6.44323491    -4.03934346    -0.29897468     0.21561652    -0.04453707
Ni     -1.96862343     2.22757742    -7.96832357     0.27395156    -0.71751935    -0.01637183
Ni     -5.99070206     6.52493331    -3.99914585     1.98573049     0.02067215     0.30215219
Ni     -2.04953358     0.08438820    -6.00774994     0.37118658    -0.84235759     0.27713234
Mo     -5.94007705     0.06658066   -10.18755769    -1.92796399    -0.23142316    -0.93836102
Mo     -9.86309914     8.60080069    -6.35461550     2.60790956    -0.10076870    -0.28435141
O      -1.90413901     1.98025277    -2.01181064     0.13686641    -0.32557449    -0.13970319
O      -2.05170085     1.94740408    -6.05703668     0.72150850    -0.40414193     0.54600267
O      -5.91093258     6.80595240    -1.93141083     0.03404757     0.55219609    -0.11706320
O      -5.84688347     6.90424992    -5.98705513    -0.51675897     0.60142192     0.84935438
O      -5.69508224     1.94028540   -10.16042239    -1.33014510     0.78592973     0.40771597
O      -5.78784394     1.85907385    -5.87197698    -0.88329260     0.13514861    -0.18335244
O      -9.73020726     6.99695848    -9.61676320    -0.61267893    -0.24202049    -1.43882036
O      -9.70468645     6.66062214    -6.03294008    -1.30551861     0.77573188     0.33042662
O      -3.86481809     2.35104685    -4.01818083     0.10887181     0.30072322     0.35594006
O      -3.89102405     2.40740647    -7.93368417     0.21186815     0.66866469     0.07624274
O      -7.82648364     2.31342766    -3.94293152     0.14707824     0.79327014     0.05890913
O      -7.70707479     2.45305447    -7.97840484    -1.31450538    -0.23162751     0.34199172
O      -3.89142124     6.32419386    -3.91907420    -0.47656721     0.28550103    -0.03268642
O      -4.03170745     6.31432087    -7.88162375     0.74050581     0.25205007    -0.49112509
O      -7.78802965     6.37422494    -3.88411006    -1.21283879    -0.81027044    -0.27556817
O      -7.95720900     6.44658450    -7.85790491     1.42277269    -1.23289537    -0.34982708
O      -3.90408700     4.23499663    -2.02700024    -0.23104619     0.35419334     1.23086474
O      -4.02720914     4.41605299    -5.88713165     0.86919429    -0.14081323    -0.65369164
O      -7.75270198     4.30312685    -9.89528070    -0.18774278     0.52846056    -0.35921367
O      -7.77160287     4.34874328    -5.87162507    -0.50861102    -0.00630414    -1.79060825
O      -3.96433319     0.04942630    -2.02587117     0.59465730    -0.06429112     0.16241955
O      -7.98075461     8.67475311    -6.11372390    -0.19039175     0.14648414     0.49298879
O     -11.59907067     8.70688710    -6.01194095    -0.44595676    -0.13803431    -0.04349628
O      -7.71661853     0.06233927    -9.98240577     0.02559426     0.42248079     0.11197647
O      -1.93531379     4.19229467    -4.07347141     0.07815656    -1.00920458     0.21744636
O      -9.74769898     4.63803023    -4.01938282    -0.27936257    -0.77570061     0.37959430
O      -5.92443670     4.47030529    -4.14356670     0.68351016     0.06667221     0.98531282
O      -5.85765131     4.35866421    -7.91075719    -0.04843424    -0.53754154    -0.25557074
O      -2.00016816     0.15961091    -3.97785343     0.30522417     1.02042879    -0.03992692
O      -5.79495008     8.68957647    -8.02697768    -0.12758836    -0.27653913     0.11122462
O      -9.83879501     8.32947747    -3.97078983     0.50072852     0.13313017    -0.29172321
O      -5.80127964     0.56756002    -8.09829051    -0.47926524    -0.21799969     0.30395043
