# total energy = -630.26931222 eV

CRYSTAL
PRIMVEC
        0.00279571     0.02951795    -7.98606283
       -7.83802570     0.01298533    -3.99532603
       -3.92160916     8.71933433     0.00634407
PRIMCOORD
56 1
Li     -3.98003625     2.35754305    -1.85368177     0.20548039    -0.03488121    -0.46659742
Li     -3.92473521     2.06958592    -6.05314741    -0.19934041     0.73374601     0.42488779
Li     -7.79267038     2.07909203   -10.16111088     0.16596890    -0.09040395     0.73085528
Li     -7.93733706     2.59048338    -5.92705303     0.09992650    -0.36632128    -0.31143433
Li     -3.96442888     6.35151300    -1.99981239     0.25451744     0.65800420     0.32771626
Li     -3.96935334     6.75841856    -5.81862699     0.20076679    -0.20383832     0.18607026
Li     -7.89188722     6.62597575    -9.97736958     0.31130123     0.31571134     0.49389251
Li     -7.84572450     6.47415136    -5.83779693    -0.02314221    -0.25881298    -0.27353385
Ti     -1.89221598     2.22880765    -4.06320143    -0.39284088     1.66165301     1.28021568
Ti     -5.75770264     6.68919998    -7.91849933    -0.51640219     0.37476126    -0.19194921
Ti     -7.78006967     4.54767494    -7.85184331     0.33420990    -0.38782102     1.57673199
Ti     -7.95560071     4.29593520    -3.61017098    -0.01372120     0.76355798    -0.48903526
Ti     -3.80741620     4.40030248    -7.71056398    -0.66658597    -0.28908323     0.76224224
Ti     -4.04555352     4.42680257    -3.68351037     0.20534720    -1.50271152     1.11612070
Ti     -1.79116029     0.07363743    -2.20371756     0.99863354    -0.23720656     1.07806243
Ni     -5.88797479     2.18203376    -8.02733685    -1.32323150    -0.39839485     0.76275629
Ni     -5.91341607     2.38863677    -4.11475750     0.05848943    -0.80481979     0.57577709
Ni     -9.89777694     6.24662065    -7.92802766     1.26530398     1.12333726    -0.95344985
Ni     -9.75909114     6.74882052    -3.92667778    -0.52867843    -0.72921370     0.04878597
Ni     -2.07978803     2.08096091    -7.91760966     1.03638573    -1.18741286    -1.23408305
Ni     -6.01440939     6.28423718    -3.92702264     0.85225996     1.17066381     0.00971790
Ni     -1.97179668     0.07860156    -5.93860453     0.31728358     0.39588304    -0.57970915
Mo     -9.79155709     8.68861862   -10.36666570     0.06288033     0.87680853     0.83649200
Mo     -5.79957445     0.03695843    -6.34196356    -2.24033583    -0.09290551    -1.20139226
O      -1.99400454     1.99305619    -1.97426395    -0.20027777    -0.80479874    -0.11198097
O      -1.91110754     1.93438341    -5.91450297    -0.71810650    -0.48264163    -1.73438897
O      -5.95103748     6.85430648    -2.11025927     0.19301802     0.16242071     0.71636101
O      -5.93752233     6.98266643    -6.01480837    -0.21882007    -0.43840378     0.52612341
O      -5.81602689     1.93603405    -9.92772391    -0.99700232     0.26156546     0.28493743
O      -5.98772948     1.93264797    -6.00203583     0.45030589     0.65080706    -1.41653338
O      -9.76684078     6.80117357    -9.99484575    -0.70806910    -0.65654154    -1.07627667
O      -9.76094888     6.85649890    -5.82390003    -0.40267817     0.10553751     0.88192572
O      -3.90252321     2.59598519    -3.88707610    -0.11049999    -2.15350056    -1.09948747
O      -4.11101973     2.40543163    -7.96631420     0.88618119     0.58138385     0.44997148
O      -7.88600694     2.44762677    -4.09540720     0.94215795    -0.96259386     0.83779444
O      -7.87327197     2.32135999    -7.97679323     0.51785739     0.95218511     0.17878255
O      -3.94317294     6.24697732    -3.91911385    -0.91225419     1.68209839    -0.56189428
O      -3.87379542     6.44418480    -7.78821943     0.54171427     0.36304011    -1.06873351
O      -7.90462777     6.28930617    -3.87173477    -0.11605932    -0.60241814    -0.42987089
O      -7.90859164     6.43834803    -8.03398255     0.26910541    -0.98804997     0.44229711
O      -4.04641985     4.49924490    -1.86694248     0.53782199    -0.25863852    -0.89229992
O      -3.85681359     4.44329241    -5.94097327    -0.34334835    -0.14327281    -1.02129203
O      -7.86379876     4.19435032    -9.82953969     0.09858504     0.15373296    -1.02896942
O      -7.77786064     4.46862600    -6.03592125    -0.08858365    -0.00638259    -1.29150045
O      -4.13700787     0.07167796    -9.98448153     0.98365632    -0.35844408     0.05878501
O      -4.07223976     0.17438055    -6.32204521     2.01233921    -0.18618267     0.53621726
O      -7.78167946     0.04647140    -6.36854786    -1.26268917    -0.17441131     1.17111256
O      -7.66329093     0.07792994    -9.92306084    -0.37090955    -0.15351201    -0.36986295
O      -2.02365267     4.35600724    -4.01950745     0.77107192    -0.30366044     0.37606018
O      -1.96661069     3.89691157    -8.04007885    -0.17182175     0.99937161     0.41584890
O      -5.96087492     4.19996627    -4.03813098    -0.66738827     0.89616516     0.13416566
O      -5.78446147     4.76688964    -8.06368010    -1.14362964     0.44365524     0.54532160
O      -2.18198940     0.35313284    -4.00598764    -0.15647066    -0.52985660    -0.73938420
O      -5.75519716     8.65558783    -8.04979913    -0.28870974     0.33454439     0.05894076
O      -5.82914196     0.47206705    -4.16586083    -0.29922079    -0.51638280     0.04329686
O      -9.91596228     8.08660027    -8.03660190     0.40384887     0.44746295     0.62899437
