# total energy = -630.79597448 eV

CRYSTAL
PRIMVEC
        0.00279571     0.02951795    -7.98606283
       -7.83802570     0.01298533    -3.99532603
       -3.92160916     8.71933433     0.00634407
PRIMCOORD
56 1
Li     -3.88995001     1.99062356    -1.91733855    -0.48869510     0.02762085    -0.01458552
Li     -4.03400849     2.24608229    -5.87433568     0.43784462     0.28306210    -0.13085487
Li     -7.84609526     2.01575648    -9.87995124     0.17858201     0.49916172    -0.33952359
Li     -7.68260296     2.38616558    -5.86082527    -1.26066237     0.21830103    -0.12853748
Li     -3.89219084     6.65674993    -2.14812059     0.34577905    -0.01507688     0.60113310
Li     -3.93498920     6.35657266    -5.88666078    -0.16043662    -0.33425688    -0.39186866
Li     -7.85583574     6.46980399    -9.91217439     0.32270643     0.41568524    -0.13549785
Li     -7.81993053     6.49169766    -5.99641586    -0.50420102    -0.03503272     0.16797805
Ti     -1.88580872     2.28617441    -4.02562024    -0.88461855     0.69635152     0.57020628
Ti     -5.70484173     6.67108982    -7.99177570     0.45044801     0.09683418    -0.15509394
Ti     -7.74649266     4.49050922    -7.79366317    -0.50322254     0.62652210    -0.77165169
Ti     -7.91372346     4.44649666    -3.67834769    -0.14235406    -1.04974819    -0.80272291
Ti     -3.87395807     4.22668887    -7.79964070     0.27036148     0.97655199    -0.43757526
Ti     -4.12502190     4.38213014    -3.62519612     0.96916376    -0.25638543    -1.00356663
Ti     -2.10107337     0.06213995    -2.15459368    -0.83519655     0.18879903     0.35759595
Ni     -5.87239034     2.19123049    -7.86854197    -0.17672419     0.08377792    -0.63619622
Ni     -5.97874032     2.26599594    -3.82911340     1.18273358    -0.27039664    -1.01543446
Ni     -9.90803537     6.35282304    -8.08082239     1.96148450     1.26858150     0.68951101
Ni     -9.70068834     6.67298294    -4.06556173    -0.70015618    -0.16346538     0.97716469
Ni     -1.83810530     2.09887048    -7.87811655    -0.91116099     0.23670326    -1.05045410
Ni     -5.81547612     6.79056374    -4.00248909    -0.78446195    -0.65514332    -0.33264907
Ni     -5.99393386     8.73783664    -6.00087340     0.00413174     0.11152715    -0.05990500
Mo     -9.98764263     8.52967696   -10.28172663     0.30453213     0.70398062     0.08113038
Mo     -5.83129652     0.19308373    -6.37934230    -0.24565792    -1.54423130    -0.77323764
O      -1.99486792     2.03041438    -2.02023737     0.71898971    -0.95251564    -0.41983870
O      -2.00834705     1.82765567    -5.91791102     0.65472354     0.27579674    -0.76270450
O      -5.87458104     6.85006062    -2.00592989     0.65083988    -0.24889828    -0.20319755
O      -5.97152116     6.88478385    -6.04607128     0.11051085     0.20894584     0.40013553
O      -5.90827905     1.69886316    -9.71648450    -0.03848000     0.07770189    -0.26851633
O      -5.94250042     2.08125985    -5.96527998     0.86816698    -0.09516624    -0.25995137
O      -9.77240603     6.63213699   -10.06732353     0.23602755     0.37189229    -1.05676907
O      -9.84683221     6.91374842    -5.88961374     1.19090517    -0.01696561    -0.24409271
O      -3.84961771     2.46100774    -3.99956231    -0.72675628     0.52115212     1.18540879
O      -3.98685340     2.36634280    -7.97093241    -0.41693193    -1.02118395    -0.09623223
O      -7.79565836     2.38864300    -3.96504070    -0.49195290    -0.02916127     0.28616307
O      -7.82710833     2.46189642    -7.98254569     0.35075957    -0.32049242     0.47153814
O      -3.89476473     6.37828130    -4.03805416    -1.49577184    -1.13836706     0.26036637
O      -3.80908726     6.43524839    -7.84565496    -0.99636264    -0.12159063    -1.10085831
O      -7.78620669     6.34051076    -3.97635009    -0.01773303     0.36135175    -0.00972348
O      -7.94589947     6.43955277    -8.02508139     0.82558820    -1.41984999     0.36532514
O      -3.86952536     4.54472716    -1.91137902    -0.01337227     0.03807865    -0.04353726
O      -3.98667528     4.26821371    -6.07013865    -0.07166402     0.83100304     1.00391011
O      -7.85015961     4.15114471    -9.95617342     0.01435307     0.85535893     0.76176004
O      -7.72387967     4.38209950    -6.05805627    -0.17104594     0.00645210     0.67333857
O      -7.82954702     8.68713371    -2.24663071    -0.57619948    -0.14002658     0.34986991
O      -4.04032668     0.25666239    -5.91586469    -0.10607081    -0.97830257    -0.60134813
O      -7.59912831     0.04230606    -6.20655369    -1.15358314     0.49869228     0.35093123
O      -3.91513103     8.45056045    -6.10447761     0.57257045     0.85435165     0.07222445
O      -1.99222701     4.42149085    -4.10954765     0.11483172    -0.86602311     0.50445934
O      -1.93326221     3.97984396    -7.99021332     0.24851169     0.02402663     0.05674052
O      -5.96101538     4.19092497    -3.88859165     0.21848666    -0.42407446    -0.01955119
O      -5.83169967     4.67283270    -8.12880652    -0.16661358     1.03218042     0.32695393
O      -1.84897580     0.26584767    -4.04203379     0.21973234     0.37726171     0.26280507
O      -1.92692796     0.03685315    -8.12836325     0.21860069    -0.45167559     0.72641017
O      -5.99711953     0.39608826    -4.06333539     0.21686133     0.06642040     0.77296892
O      -9.77951849     8.19636178    -8.19920993     0.25316277     0.45414745     0.97704586
