# total energy = -630.38698249 eV

CRYSTAL
PRIMVEC
        0.00279571     0.02951795    -7.98606283
       -7.83802570     0.01298533    -3.99532603
       -3.92160916     8.71933433     0.00634407
PRIMCOORD
56 1
Li     -3.83809976     2.36526492    -1.94364371    -0.45802218    -0.29333510    -0.43931828
Li     -3.81769766     2.11728936    -5.89392059    -1.02330373     0.59360120     0.00598235
Li     -7.82195490     2.37076998    -9.97140684    -0.38881557    -0.28597731     0.04011595
Li     -7.71512940     2.41039226    -5.77159051    -0.35775195     0.05461395    -0.69824445
Li     -3.91652920     6.60020289    -2.02370818    -0.06635699    -0.14853909    -0.05898984
Li     -3.92242285     6.15431153    -5.93005155     0.36494394     0.42728536    -0.49737592
Li     -7.84857190     6.53976000   -10.03320403    -0.70714873     0.11367407     0.70299636
Li     -7.94256129     6.52817320    -5.90034802     0.29164800    -0.64417925    -0.14329276
Ti     -1.81677087     2.15482335    -3.99531772    -0.67983491     0.89137251     0.19604939
Ti     -5.81151080     6.78187730    -7.91255856    -0.27390385     0.20925966    -0.31266800
Ti     -7.81281520     4.52249786    -7.87743252    -0.21505191    -1.15814824     1.70371645
Ti     -7.81576688     4.45835335    -3.64229742    -0.55431261     0.71339863    -0.68634469
Ti     -3.89164419     4.20907252    -7.87019782     0.16702417     0.58404836    -1.29401937
Ti     -3.93420773     4.37687897    -3.79885164     1.08746489    -0.28984826    -0.24128609
Ti     -6.08876586     8.65104870    -2.14199276    -0.39464806     0.61643763     0.82955479
Ni     -5.86392882     2.29320378    -8.05837182    -0.59416973    -0.97161632     0.39357972
Ni     -6.01089930     2.34144069    -3.94125707     1.56500688    -0.31940152     0.59477247
Ni     -9.86466051     6.72721279    -7.97046826    -0.05117567    -0.01554238    -0.77780173
Ni     -9.81167193     6.40765467    -4.10849917    -0.56541658     0.08166319     0.52122618
Ni     -2.01910025     2.01747974    -7.94232614     0.61173057     0.15197110     0.21407460
Ni     -5.83451271     6.53358210    -4.03013396    -0.25016394     0.08906401     0.25384032
Ni     -5.96151320     8.64680410    -5.88770294     0.84834318     0.74773464    -0.76218068
Mo     -5.95560364     0.11108696   -10.27248534    -1.96601163    -1.06463054    -0.68349630
Mo     -9.70053175     8.71594611    -6.22717219    -2.75651614     0.53855194    -1.23892460
O      -2.01902166     1.83462529    -1.92778839     0.92781243     0.33443687    -0.06621741
O      -2.05108647     1.81363786    -5.93455338     0.58428040    -0.74755408    -0.53502110
O      -5.97002235     6.78371038    -2.01086872     0.55270572    -0.24685711     0.25993469
O      -5.91150881     6.80596217    -5.98045954     0.28894961    -0.15966792     0.48939606
O      -5.97163640     2.04383957   -10.04479716     0.66800804     0.34353479    -0.22761918
O      -5.78095133     1.92943142    -5.75267976    -0.11172682    -0.75995786    -0.43959759
O      -9.84679749     6.84395833    -9.81693606     0.35400994     0.85989700    -0.32635812
O      -9.86199906     6.71897779    -6.16235760     0.60668423     0.46994732     1.57648364
O      -3.92518385     2.46624427    -3.88839890    -0.66386441    -0.61970582    -0.21233995
O      -3.95391940     2.28175564    -8.04988959     0.39190898     0.29378209     0.05890911
O      -7.92914861     2.55001735    -3.90238623     0.20193649    -0.62584068    -0.17277074
O      -7.83987038     2.46754399    -8.03381626     1.08202421    -1.15784459     0.31647398
O      -3.86666082     6.34393287    -4.10305267    -0.20366953     0.46290200     0.21794214
O      -4.00051737     6.41238190    -8.01741738     0.25800558    -0.83658371     0.47956753
O      -7.88698581     6.40702984    -3.92742563     0.12910384    -0.86351057    -0.59547142
O      -7.91444237     6.38000914    -7.93492478     0.86901219     1.38227337    -0.55854071
O      -3.85491371     4.65465044    -2.09446086     0.24811448    -1.05217024     1.44998329
O      -3.78411424     4.18844055    -6.16411725    -0.35509816     0.84166634     2.27859353
O      -7.81718541     4.54692751    -9.85172375    -0.08383935    -0.46507434    -2.16999708
O      -7.88108969     4.45859186    -6.12441838     0.48015469    -0.40438960     1.07219465
O      -4.08719096     0.09757341    -2.12024023     1.37747965    -0.30896496     0.34816585
O      -7.93901274     8.46571225    -5.93088123     1.26939348     1.08473034     0.01176412
O     -11.50404307     8.71704451    -5.98375431    -0.86323446    -0.12447729     0.08459628
O      -7.75086329     0.13486919   -10.04807373    -0.37195018    -0.12432927    -0.03599520
O      -1.89743922     3.99050739    -4.05670684    -0.92600148     0.46435954    -0.14386942
O      -9.78998562     4.51699927    -4.02710841     0.99822626     0.65373390    -0.31036555
O      -5.79277272     4.59382265    -4.03103715    -2.19125915    -0.20089417    -0.28334533
O      -5.82562065     4.19901642    -8.13282956    -0.22372874     0.42633034     0.34364600
O      -1.94225097     0.07845460    -3.94248297     0.11448872     0.01460409    -0.55061298
O      -5.89502261     8.58311971    -8.03332920    -0.08300859    -0.28995176    -0.24234378
O      -9.86139347     8.25209970    -4.01340749     0.40157064     0.27217364    -0.06638911
O      -5.93442296     0.36937358    -8.06937864     0.73651893     0.81223387     0.28317060
