# total energy = -630.91203995 eV

CRYSTAL
PRIMVEC
        0.00279571     0.02951795    -7.98606283
       -7.83802570     0.01298533    -3.99532603
       -3.92160916     8.71933433     0.00634407
PRIMCOORD
56 1
Li     -4.02398883     2.32618773    -2.03873549     0.26316465    -0.13284764     0.19102842
Li     -3.96003420     2.19340127    -6.06063271     0.25689897    -0.42482332     0.64113770
Li     -7.92889378     2.45976628    -9.92489065     0.82450152     0.00952936    -0.59389642
Li     -7.88219080     2.28092724    -6.02696964     0.51223063    -0.28075097     0.50676857
Li     -3.96790934     6.25463466    -1.88769010     0.16743900     0.35209622    -0.10046693
Li     -3.78478184     6.53375507    -5.99968835    -0.19539473    -0.05914579     0.73660586
Li     -7.81261679     6.42764977   -10.19696912    -0.09031708     0.18603226     1.06925746
Li     -7.80502206     6.66037353    -5.98381934     0.01878976     0.09250321     0.88406957
Ti     -1.90760649     2.27114974    -3.98656223    -1.77963699    -0.57902691    -1.30137485
Ti     -5.94114679     6.76053503    -7.93438617     1.47788450     0.56527802    -0.26887319
Ti     -7.85578010     4.40901439    -7.66429983     0.61337592     0.13031302    -1.89225827
Ti     -7.87895813     4.37998069    -3.80009776     0.26914686    -1.37731929     0.80706329
Ti     -4.02473586     4.39205352    -7.62359988     1.84146650    -0.17449098    -0.47615951
Ti     -3.99031993     4.37171573    -3.73693150    -1.09507492    -0.34148680    -1.16982756
Ti     -6.10944781     8.70070610    -2.20239698     0.69585554     0.38911757     0.22780372
Ni     -5.82195202     2.27724754    -8.02806329     0.07643976     1.10036222    -0.63971938
Ni     -6.07123384     2.23432742    -4.15057971     1.73223107     0.67047441     0.64552347
Ni     -9.79773040     6.49718082    -7.82679987    -0.08896112     0.38270789    -0.03996507
Ni     -9.79605420     6.27280461    -3.96261956    -0.16740658     0.13597073    -0.59304408
Ni     -2.02600470     2.12780771    -8.07088080     0.29574981     0.72852420     0.65772029
Ni     -5.82038540     6.60762132    -4.02035477    -0.03911773    -0.01478874    -0.01844157
Ni     -5.73619937     8.71890886    -5.95061152    -0.61853482     1.19168850    -0.11888507
Mo     -5.96479307     0.06698551   -10.25639130    -0.82425426     0.63264879     1.08515279
Mo     -9.77553971     8.65208446    -6.29186784     0.25670597     0.60770041    -1.03647046
O      -1.99462473     1.97320189    -2.10436137     0.70970448    -0.47668953     0.81723263
O      -1.84822004     1.83948294    -5.99007258    -0.82274999     0.12280484    -0.03562602
O      -5.88730117     6.82842765    -2.05296966     0.04739063    -0.76696496     0.14544605
O      -5.70348548     6.86821815    -5.95599470    -0.97704291    -0.14400500     0.02583626
O      -5.87234476     2.05046490   -10.10763714    -0.52787839    -0.48307176     0.56003184
O      -5.90677218     2.06536171    -6.03905333     0.00509828    -0.79999641    -0.08858486
O      -9.71801638     7.00357624    -9.68192680     0.11582813    -0.51004474    -0.90323336
O      -9.84448795     6.78894751    -5.93988541     0.74136747    -1.02061143     0.31946521
O      -3.86255892     2.29858803    -3.99193441     0.61249950     1.45639387    -0.60258749
O      -3.95057809     2.43392886    -8.03774268     0.40558458     0.24354959     0.72848927
O      -7.99477082     2.33693716    -3.95857960     0.39322791     0.68677732    -0.50944468
O      -7.69167006     2.48730786    -8.04134387    -1.60408768     0.00080518     0.46839466
O      -3.87978732     6.36835060    -3.88186926     0.08589243    -0.61429415     0.04312002
O      -3.87119491     6.42427077    -7.92908935    -0.74742754    -1.06311695    -0.23457738
O      -7.89895298     6.26551187    -4.05301413     0.42185966     0.82617810    -0.31139561
O      -7.78912516     6.39193745    -7.88257207    -0.27043581    -0.14409433     0.11560116
O      -3.96058621     4.25527676    -1.99048514     0.17463158     0.89749695     0.01871393
O      -3.83427379     4.54484290    -5.88144348     0.12856916    -0.46966396    -0.49624278
O      -7.71687349     4.51988409    -9.98873916    -0.28537729    -0.36954640    -0.85649829
O      -7.74447409     4.31326448    -5.95695617    -0.39175088     0.24118624     0.66560134
O      -3.97311729     0.06904761    -2.16347093    -0.37105384    -0.25402271     0.01043048
O      -4.04494632     0.04552046    -5.97137539     0.45810360    -0.39788502    -0.01505567
O     -11.50592591     8.72151963    -6.03878787    -1.85509385     0.48231732     0.31128768
O      -7.73683869     0.03783798   -10.01610434     0.36553521    -0.27734103    -0.49712875
O      -1.93380760     4.24554399    -4.01357565     0.29213336    -0.59281324     0.20432296
O      -2.00136895     4.29249244    -8.01756779     0.21520722     0.16864017    -0.00775784
O      -5.87570031     4.09094974    -4.21697145    -0.44229835     0.38858719     0.92581744
O      -5.82435588     4.36739859    -7.98864431    -1.43627944     0.29187835     0.14141501
O      -1.84722494     0.24548862    -4.02216090     0.13347993     0.08137147     0.27674255
O      -5.95067678     8.56586546    -8.06383054     0.11922048     0.05541880     0.11609576
O      -5.92408671     0.39857047    -4.03928196    -0.05261926    -0.96174354    -0.81344611
O      -5.84288668     0.45360891    -8.12876671     0.24265878     0.35441838     0.23183717
