# total energy = -630.43159223 eV

CRYSTAL
PRIMVEC
        0.00285542     0.02004370    -7.95977623
       -7.82940539     0.00763210    -3.98158109
       -3.91729101     8.74642787     0.01461334
PRIMCOORD
56 1
Li     -3.91965539     2.30963131    -1.83394209    -0.04102097     0.02092185    -0.34651557
Li     -4.06605188     2.33622702    -5.93927307     0.96998562     0.14306712     0.19499891
Li     -7.99049785     2.47022656    -9.96994320     0.42360185    -0.34426710     0.23006406
Li     -7.73279636     2.35547583    -5.94325989    -0.27100147    -0.74048790     0.27362362
Li     -4.04940089     6.69551830    -1.94624590     0.62301642    -0.15253559    -0.59319274
Li     -3.82886073     6.28372162    -5.63690951    -0.12090241     0.92363463    -1.12358111
Li     -7.76714794     6.36634374    -9.83766744    -1.32157161    -0.06274369    -0.79647196
Li     -7.85056957     6.43613550    -6.01966667     0.18878588     0.38844798     1.10992351
Ti     -2.00723765     2.06626190    -4.00571656     0.61712881     0.20539108     0.86598121
Ti     -5.84771744     6.44114597    -7.91249752     0.92146476     0.66275570     0.38178212
Ti     -7.86585382     4.37207698    -7.67257970    -0.66854654    -1.78258958    -0.43211290
Ti     -7.71394491     4.36179294    -3.77436009    -0.00358886     1.22511972     0.10790699
Ti     -3.78236223     4.40581327    -7.74655828     1.19444703    -0.72776470    -0.25855802
Ti     -3.84098329     4.42442104    -3.67582434    -0.12274878    -0.14893417    -0.14537131
Ti     -6.13185872     8.72020866    -1.88517273    -0.28513863     1.02891375    -0.03905494
Ni     -5.86716131     2.29736720    -8.01544396    -0.14587477     0.30963732     0.86784224
Ni     -5.94976920     2.16480567    -3.95975234     1.16901844     0.20474015    -0.06763914
Ni     -9.68008052     6.64770303    -7.94576111    -1.02909986     0.18061921     0.25402113
Ni     -9.81715710     6.51078184    -4.04793883     1.07148751    -0.01154487     0.01660697
Ni     -2.02322685     2.03075628    -7.90774590     1.47908123     0.22252798    -0.11026054
Ni     -5.80930457     6.66435743    -3.92940391    -0.76958289    -0.60881828    -0.56088487
Ni     -5.97376286     8.75495318    -6.02006371     0.64398876    -0.52275081     0.63062831
Mo     -6.00340158     0.10723323   -10.27511100    -1.88374234    -0.01497012     1.02236818
Mo     -9.75124876     8.70151414    -6.38725772     0.23065679     1.08219988     0.42986163
O      -1.93695248     1.88526497    -1.93165549    -0.45052741     0.26164922     0.22579741
O      -1.95218673     1.79372553    -5.93546449    -0.82901531     1.11104654    -0.80868725
O      -6.04555749     6.77919772    -1.92272546     1.79753521     0.17981957     0.07344686
O      -5.90880722     6.89524688    -5.93730532     0.36904521     0.18760551    -0.85485687
O      -5.99794394     2.08733492    -9.97377992     0.90226147    -0.58124159    -0.77787657
O      -5.77829328     2.02506050    -5.89705597    -1.24048569    -1.01552401     0.02950938
O      -9.75936706     6.91968176    -9.82830833    -0.37448878     0.35590500    -0.02404006
O      -9.73436210     6.81683612    -6.05522142     0.03628972    -0.51152218     0.22836252
O      -3.94984647     2.43847418    -3.85992704    -0.40936825    -0.20238608    -0.39116387
O      -3.84200367     2.41996897    -7.86731134    -1.32958548     0.85941302    -0.53222139
O      -7.79775043     2.48333110    -3.99570592    -0.40520115    -1.31913814     0.24283542
O      -7.84394440     2.35069302    -7.87660057     0.56509867     0.97727566    -0.76395642
O      -3.76400290     6.42580766    -3.86913892    -0.09997063    -0.08850873     0.11051840
O      -3.97331712     6.43364031    -8.09792285     0.07050269    -0.28806981     1.25637307
O      -7.78743699     6.31900380    -4.00686660    -0.46319338     0.40421587    -0.01542931
O      -7.79348874     6.32259421    -7.94948883    -0.57190033     0.11814634     0.49950016
O      -3.91704170     4.50952979    -1.93589772    -0.30522902    -0.47600983     0.27928115
O      -3.96070693     4.52902242    -5.99395158     0.16787600    -0.46556883     0.28221954
O      -8.12739384     4.37539728    -9.99092210     0.97781824     0.09972242     0.37824697
O      -7.97133222     4.20516720    -5.92626943     0.27583221     1.45797729    -0.48228432
O      -7.93189162     8.71947121    -9.85226239    -0.71271034     0.92147263    -0.43842848
O      -7.87960093     8.71924794    -6.12944922    -0.41945220     0.17914070     0.08405635
O      -7.59808254     0.03314511    -6.08739319     0.24830373    -0.43389640     0.22381952
O      -7.81000006     0.12350922   -10.02691926     1.49159108    -0.50025928    -0.40974246
O      -1.92232913     3.98150599    -3.98364609    -1.02685731     0.97053826    -0.01265284
O      -9.78137008     4.58144187    -4.06057597    -0.25678360     0.45526687     0.09206552
O      -5.77338453     4.66146953    -4.00908951    -0.74588450     0.11244711     0.32377381
O      -5.91574209     4.53063698    -7.93814372     0.30945998    -0.24343167    -0.15812220
O      -1.92040978     0.20785165    -3.82629178    -0.25071771    -1.63926068    -0.81887574
O      -1.82072285     0.02454798    -8.01759536    -0.23473914    -1.33307457     0.11653226
O      -9.71107857     8.46974359    -4.05289641    -0.08285095    -0.42437253    -0.32633027
O      -5.86404701     0.49944391    -8.17139856     0.11133418    -0.43123038     0.59826911
