# total energy = -629.95210045 eV

CRYSTAL
PRIMVEC
        0.00285542     0.02004370    -7.95977623
       -7.82940539     0.00763210    -3.98158109
       -3.91729101     8.74642787     0.01461334
PRIMCOORD
56 1
Li     -3.72697216     2.24175006    -1.80682951    -0.91598339     0.37373024    -0.53125176
Li     -3.86289490     2.17201874    -5.99702418    -0.42601850     0.20908646    -0.26873273
Li     -7.78652742     2.27322401   -10.09687423     0.45664395    -0.05839895     0.54260409
Li     -7.73088760     2.22817390    -6.00486795    -0.75153346     0.10390499     0.42926413
Li     -3.87762680     6.60031265    -1.85377926     0.08356948    -0.09689513    -0.59285411
Li     -3.97610354     6.75819900    -5.80162508     0.12185516    -0.07812367    -0.50208754
Li     -7.89059798     6.20579522    -9.85423625    -0.04339839     0.00361836    -0.30704470
Li     -7.76556250     6.30995797    -5.86092240    -0.37831249     0.74983874     0.20688006
Ti     -1.96441591     2.12384832    -4.20473423     0.41697603     1.61169207     0.69134435
Ti     -5.84994476     6.65258685    -8.05951337    -1.14827028    -0.41504800     0.72401470
Ti     -7.88379659     4.40470077    -7.61562890    -0.41613412     0.11353553    -0.71182437
Ti     -7.98250037     4.31981524    -3.75046526     0.98076003     0.46309245    -0.02659437
Ti     -3.89331546     4.39679432    -7.65722634     0.20281067     0.36026068     0.30401652
Ti     -3.91575885     4.43495284    -3.63920687    -0.46777543    -0.12098324    -0.06246340
Ti     -2.03212405     0.02252640    -2.11649625     0.26943208    -0.15359067    -0.21371890
Ni     -5.88825303     2.49201744    -7.87705440     0.22541472    -1.51920162    -1.19639000
Ni     -5.89844456     2.18635693    -4.01903770     0.25012341     0.98476322     1.02185763
Ni     -9.78281659     6.67975177    -7.96835001     0.03598844    -0.37781734     1.14933632
Ni     -9.85384056     6.49546130    -3.99751398     1.48479689     0.86857498     0.37516143
Ni     -1.89576481     1.94245058    -8.04055345    -0.19208880     0.75243413     0.92658673
Ni     -5.94148371     6.41458294    -3.99855235     0.26672192     0.23356137     0.47660332
Ni     -2.02403361     0.02402149    -6.08168635     0.08743289    -0.56867367     1.51917464
Mo     -5.79246637     0.03401177   -10.19633841    -1.87262257     0.19260391    -1.12962030
Mo     -5.92540441     0.01471023    -6.26879306     1.06192842    -1.44058249    -0.96807720
O      -1.88153690     1.89958595    -1.94250936    -0.02895409    -0.29512911    -0.51455326
O      -1.81750754     1.85664604    -6.09471793    -0.96089924     0.20587321    -0.59533815
O      -5.93322064     6.66938835    -1.97559595     0.37342296     0.67818095    -0.73051782
O      -6.00766263     6.97217063    -5.81658436     0.49300962    -0.57338631    -1.05532722
O      -5.77257298     1.95990350   -10.14904693    -0.73935488     0.50678394     0.72964529
O      -5.93054552     1.88429604    -5.77565414     0.05581042     0.80565095    -0.99240235
O      -9.70998989     6.87548644    -9.82994268     0.11323161    -0.02102646     0.42742939
O      -9.71738617     6.82026054    -5.98710791    -0.83091855     0.31324846    -0.53374782
O      -3.87855133     2.52712321    -4.07244826     0.34837837    -1.32406946     0.03833166
O      -3.78576429     2.55216240    -7.93822399    -0.69933356    -1.80733184     0.54586155
O      -7.94328441     2.41505342    -4.09032925     1.41121929    -0.80579201     0.33592316
O      -7.88116456     2.47610111    -7.92000418     0.50243644    -0.59054678    -0.27625777
O      -3.92153833     6.31835043    -4.03206209     0.13702779     0.58081993     1.10255554
O      -3.98342612     6.46826190    -7.86138578     0.01042045    -0.36665625    -0.36855895
O      -7.85357643     6.32298977    -3.86402321    -0.03301992    -0.17757152    -0.29541449
O      -7.82303299     6.36096308    -7.95114930    -0.05906740    -0.02987176     0.27191185
O      -3.85975669     4.24112654    -1.89887343     0.20061993     0.88155853    -0.16555408
O      -3.69597085     4.37636208    -5.91897774    -0.41696114     0.02388141    -0.03048451
O      -8.01250369     4.26576102    -9.95064931     0.50535786    -0.00894280     0.57354825
O      -7.61415439     4.46563387    -5.89045931    -0.03950544    -0.49855365     0.45071161
O      -3.96775211     0.23692888    -1.98790685     1.26891080    -0.86324831     0.23242035
O      -4.14487215     0.13479404    -6.04324288     0.58914440    -0.10956898    -0.47152854
O      -3.90714121     8.67662910    -1.93004929     0.10572714    -0.13056380    -0.29167543
O     -11.52988827     8.73870467    -9.98897021    -0.19987183     0.40544009    -0.38562179
O      -9.71332231     4.30985509    -7.72257902    -1.47228347    -0.97174756    -0.70199686
O      -9.78603998     4.69038437    -3.99433006    -1.47747537     0.05072159    -0.67824009
O      -5.92058994     4.39850181    -3.78685184     0.54710107     0.10406671    -0.90394438
O      -5.87982461     4.37757182    -7.96992631     0.68743493     0.58816928     0.04927945
O      -2.04544102     0.27682231    -4.08815582     0.11475959    -0.26150169     0.52761267
O      -6.05978888     8.48227866    -8.12660028     0.57555553     0.09230414     1.04947659
O      -9.61964152     8.44883608    -4.01463340    -0.68443473    -0.29806668     0.30730791
O      -6.02258572     0.48059424    -8.03857720     0.48421142     1.31177492     0.38365080
