# total energy = -630.42763916 eV

CRYSTAL
PRIMVEC
        0.00285542     0.02004370    -7.95977623
       -7.82940539     0.00763210    -3.98158109
       -3.91729101     8.74642787     0.01461334
PRIMCOORD
56 1
Li     -3.77843539     2.31692624    -1.92706166    -0.86179180    -0.06476092     0.11032995
Li     -3.73806655     2.23028916    -5.92488324    -1.01886518    -0.07238960    -0.49534085
Li     -7.96204513     2.41353085    -9.98409855     0.71507425     0.02660028     0.04486400
Li     -7.74989446     2.23660325    -5.79742006    -0.08346110    -0.04922651    -0.42200843
Li     -3.91797205     6.48996625    -1.86737195    -0.01693917    -0.33311600    -0.17171382
Li     -3.82834261     6.25984794    -6.01523937     0.13533712     0.78626244     0.86233336
Li     -7.83144496     6.34068731    -9.95731284    -0.21523128     0.07896534     0.33402172
Li     -7.70277309     6.41714258    -5.87818759    -0.53368083     0.34040354    -0.02798694
Ti     -1.94749711     2.22448990    -4.03366103     0.44235573    -1.39027479    -0.50380979
Ti     -5.87189115     6.70909653    -7.86737176     0.08716056     0.15794922    -0.61516425
Ti     -7.84019047     4.37789035    -7.70998031     0.54314299     0.26264682    -1.61088571
Ti     -7.87845107     4.45132046    -3.86927296     0.72074460    -0.02992069     2.44390322
Ti     -3.84712373     4.34606066    -7.64434965     0.11999647     0.76342516    -1.20726603
Ti     -4.05280668     4.32700025    -3.77835261     0.24894006     1.02204011     0.18380072
Ti     -2.08988069     0.03950206    -2.08798321    -1.94162830    -1.06419320     0.02412732
Ni     -5.84836798     2.31603456    -7.94761837     0.16493331     0.79901760    -0.28940255
Ni     -5.90424655     2.04616684    -4.03156823     0.26135370     0.39208176     0.74330911
Ni     -9.89094203     6.45448404    -7.86244567     1.91653901     0.82742502    -1.11282092
Ni     -9.71349130     6.59627647    -4.05899806    -0.53624120    -0.68582189     0.66198350
Ni     -1.94108921     2.27772513    -8.03820737     0.48464751    -0.46292915     2.34547315
Ni     -5.76496267     6.60075808    -3.85714441    -0.46806263     0.23025183    -1.05924906
Ni     -5.98153029     8.69032968    -5.97207185     0.50622184     0.24299664     0.27961503
Mo     -6.00778226     0.16087616   -10.18052004     0.46162658    -0.09637750    -0.58324507
Mo     -9.80862016     8.62843471    -6.30585396     1.17948467     0.99922940    -1.17192464
O      -1.91279999     1.90826650    -1.83867293     0.60228658     0.47987269    -1.90219162
O      -1.94393848     1.78826651    -6.01698963    -0.52879034     0.39105462     0.41158441
O      -5.86265108     6.74739776    -1.90537331    -0.20344716     1.09389820    -0.41482192
O      -5.87616309     6.81751943    -5.93903800     0.52547518     0.41713833     0.52396494
O      -5.89043147     2.05141706   -10.00434219     0.19895431     0.86140848    -0.28624932
O      -5.79104534     1.87513422    -5.91510002    -0.46591625    -0.09119292     0.10853547
O      -9.78413968     6.99577802    -9.93456370     0.54313334    -0.65060966     1.60989817
O      -9.78180590     6.74650536    -6.04309287    -0.39103723    -0.89972702     0.99644471
O      -3.97619550     2.46200342    -4.07151489     0.28608976    -1.63904432     0.61500811
O      -3.84485234     2.48080496    -7.88809249    -0.09803422    -0.73867898    -0.43061416
O      -7.82443992     2.55526983    -3.89915865    -0.05480112    -2.07433106    -1.16516076
O      -7.87008498     2.41121139    -7.93874000     0.59137787    -0.51358398    -0.10888164
O      -3.80765980     6.32580223    -4.04659237    -1.16627960     0.07514857     0.42581608
O      -3.92929623     6.33906402    -7.89175103    -0.34687469     0.41449797    -0.21424239
O      -7.83752842     6.37754380    -3.99948085     0.76821854     0.75245849     0.28199215
O      -7.81137846     6.31020430    -7.84636927    -0.60642663    -0.47153558    -0.45504622
O      -3.84070579     4.41063566    -2.02422401     0.13389024    -0.25711550     0.27820772
O      -3.50935836     4.39586381    -5.92107434    -0.96038400    -0.13396714    -0.06671085
O      -7.79724567     4.34297565    -9.96564069    -0.22832735     0.53711592    -0.76463703
O      -7.95339675     4.23422051    -5.98758158     0.34226261     0.22376412     0.89763008
O      -3.96328908     0.29492793    -2.16135821     1.20693828    -0.98777935     0.61826459
O      -7.98636198     8.51353121    -5.95795386    -0.73382083     0.71128539    -0.12050095
O     -11.62052577     8.66663485    -5.95608880     0.27160335     0.13041921    -0.09992150
O      -7.74382512     0.17417225   -10.07397725    -1.06121899    -0.27161951     0.23087575
O      -1.99931108     4.01471555    -4.06619588     1.01867295     1.45791100     0.56616076
O      -9.72316305     4.73676683    -4.04213823    -0.70920470    -0.16733750    -0.26731157
O      -5.82553547     4.69785371    -4.13118769    -1.40832692     0.07422026     0.07329786
O      -5.79698286     4.37204529    -7.86456823    -0.80144127    -0.62157996     0.31671470
O      -1.92478981     0.16238299    -3.96544808     0.29311862    -0.22855287     0.00147272
O      -6.12971539     8.52924632    -7.91079537     0.84889140    -0.50303828    -0.29687351
O      -9.77592744     8.47388187    -3.96148969     0.05599807     0.16407627    -1.63734770
O      -5.80520929     0.47740185    -8.12535988    -0.18466322     0.02382585     1.47271425
