# total energy = -630.75385908 eV

CRYSTAL
PRIMVEC
        0.00279571     0.02951795    -7.98606283
       -7.83802570     0.01298533    -3.99532603
       -3.92160916     8.71933433     0.00634407
PRIMCOORD
56 1
Li     -3.93060389     2.47079853    -1.89009598    -0.09298291    -0.44612732     0.03234502
Li     -3.93369007     1.83338856    -5.95246258    -0.26254120     0.70398782    -0.20359541
Li     -7.99982998     1.99208750   -10.10505982     1.17297589     0.52476036     0.42273421
Li     -7.90939136     2.18009318    -5.92334897     0.81197262    -0.19709900     0.16779552
Li     -4.02278356     6.61795796    -2.04808785     0.62891038    -0.23103091     0.10093297
Li     -4.07180614     6.43368462    -5.94132113     0.42382777     0.12794413     0.62568163
Li     -7.83856189     6.35274753    -9.77117416     0.09391932    -0.13418702    -1.12553710
Li     -7.75353165     6.38969541    -5.84871706    -0.77233698     0.42248898     0.15920133
Ti     -1.93855752     2.29712518    -4.10083925     0.55435273     1.03809461     0.45652266
Ti     -5.89083620     6.83114685    -7.92646422     0.83406112     1.38410810     0.07676330
Ti     -7.69217617     4.35481579    -7.68255127    -0.42045017    -0.33192049    -1.26253522
Ti     -7.85378083     4.28568186    -3.65659578     0.33279491    -0.07826925     0.86399217
Ti     -3.90732653     4.40821069    -7.69759604     0.99783460    -0.31428122    -1.17990890
Ti     -3.99305651     4.34361245    -3.73419486     0.08017252     1.71925372    -0.79757521
Ti     -2.12598697     0.03055805    -2.27011641    -0.52907845    -0.27206421     0.31693357
Ni     -5.82739566     2.33992674    -8.07599936    -0.02491221    -0.17996267     0.38942640
Ni     -5.86930373     2.23852243    -4.02240173    -0.52850792    -0.66525872    -0.16316861
Ni     -9.75309610     6.49606135    -8.04569814    -0.62962492    -0.32448596     2.12150396
Ni     -9.82908728     6.47395061    -3.82932471     0.56997143    -0.48613705    -0.97473078
Ni     -1.99805778     2.25595931    -7.96658891     0.29815798    -0.25748097    -0.64593631
Ni     -5.89040575     6.42968109    -3.97958505    -0.09636863     0.37161437     0.01988127
Ni     -1.95505925     0.09252409    -5.91253074    -0.63904346    -1.47850994    -1.23083631
Mo     -9.89047269     8.69360440   -10.22774171     0.71081337     0.57238939    -0.16090803
Mo     -9.80195880     8.66295800    -6.48315901    -0.37321396    -0.88039521     2.68363737
O      -1.88235407     1.88956331    -2.01979839    -1.06359438     0.68056602    -0.19360944
O      -2.00797353     1.94234879    -6.08961079    -0.00468559    -0.38579280     1.70346301
O      -5.92432134     6.82785973    -2.04819938     0.20297392    -0.23107035     1.08311368
O      -5.93250976     6.92795205    -5.90074508     0.34953479    -0.25197164    -0.24556382
O      -5.91102999     2.04139405    -9.99036276     0.36903760    -0.15110417    -0.98608549
O      -5.84232952     1.90389614    -5.97291074    -0.31387754     0.39734085    -0.34398854
O      -9.71367956     6.83003294    -9.85208509    -0.54713318    -0.16766190    -0.80500116
O      -9.85838276     6.78928969    -6.00172599     0.28116645     0.85687760    -0.18754156
O      -3.88419935     2.41302667    -3.96958164     0.16655134    -0.25001542    -0.12051084
O      -3.88535732     2.46018758    -7.89527613    -0.45714560    -0.31536740    -0.76607559
O      -7.89898917     2.42809974    -3.92953271     0.36854641    -1.96737066    -1.06469909
O      -7.80726811     2.42054173    -8.06811477    -0.50466904    -0.38188096     0.54255729
O      -3.81604008     6.36363153    -4.00836498    -0.59514177    -0.70044026    -0.12922395
O      -3.92516178     6.43225029    -7.85260932    -0.87783277     0.14159835    -0.65706462
O      -7.89454327     6.11576674    -3.88588077    -0.05207095     2.94404080    -0.33736749
O      -7.79334736     6.33679714    -7.93787539     0.65033747     0.34154733     0.16964295
O      -4.05831420     4.53823992    -2.00328124     0.42579406    -0.38688630     0.29594311
O      -3.95619452     4.50420646    -6.00374806     0.04652871     0.23990638     2.44474671
O      -7.89988612     4.33823172    -9.87568685     0.02822557     0.45068219    -0.01053717
O      -7.89119001     4.51368520    -5.97239989     0.16014460    -0.81664175     0.45650470
O      -7.95743075     8.75015773   -10.02355569     1.07432924     0.12894939    -0.20026558
O      -7.95999248     8.71064219    -6.10504464    -1.28053318    -0.44149036     0.09613983
O      -7.77557708     0.09510626    -6.27191993     1.14183168    -0.83596006     0.20770424
O      -7.73221673     0.04087810    -9.91807065     0.07543742    -0.21082764     0.05974572
O      -1.89940198     4.19332177    -3.92448274    -0.87476407    -0.93332196    -0.29187941
O      -1.98363649     4.17528152    -7.95667934     0.13346636     0.18199886    -0.33048110
O      -5.90082418     4.14568139    -4.07737199     0.06233660     0.36272489     0.20417735
O      -5.78413184     4.29877875    -8.01570161    -1.49621266     0.06343954     0.09978541
O      -2.08707060     0.24747120    -4.06721583     0.16791009     0.61335651    -0.34498948
O      -5.77896704     8.67677511    -7.88416178    -0.38371948    -1.02049348    -0.29042929
O      -5.94496388     0.28575600    -4.02034827     0.04561003     0.26285611    -0.14502701
O      -5.69541116     0.48044790    -8.18535047    -0.58393306     0.66690855    -0.71884287
