# total energy = -630.30092354 eV

CRYSTAL
PRIMVEC
        0.00279571     0.02951795    -7.98606283
       -7.83802570     0.01298533    -3.99532603
       -3.92160916     8.71933433     0.00634407
PRIMCOORD
56 1
Li     -3.75332905     2.26519479    -1.80188732    -0.54825304    -0.13850717    -0.88120842
Li     -3.88087828     2.21899215    -5.99187299    -0.34008410     0.02222600    -0.00209091
Li     -7.89274837     2.27059421   -10.19699684    -0.03066785     0.43981512     1.14943099
Li     -7.82993017     1.85295575    -5.95869463    -0.15001910     0.45324350    -0.09438196
Li     -3.79772687     6.68526328    -1.97082791    -0.38698837    -0.33780174    -0.03236445
Li     -3.83894252     6.55102254    -6.01268772    -0.17412705    -0.44746559     0.91052757
Li     -8.02345625     6.25586009    -9.86434950     0.60851044     0.36541640    -0.47255501
Li     -7.87675742     6.46143148    -5.87523792     0.15976700    -0.00477795    -0.24666906
Ti     -1.92796714     2.28019529    -4.14771446     0.04523118    -1.40105058     0.03492235
Ti     -5.79633767     6.66862362    -7.93123904    -0.48956458    -0.17536972    -0.04225354
Ti     -7.91591589     4.47333970    -7.76580161     0.45122509    -0.86279988     0.50433684
Ti     -7.89596917     4.35385922    -3.83642606    -0.56730377    -0.82744137     1.12238238
Ti     -3.91939647     4.28985950    -7.73609465     0.93190904     0.53772786     1.24419736
Ti     -4.01303127     4.40250555    -3.64212169     0.45617127    -0.39923811    -3.91450028
Ti     -6.10809882     8.64995234    -2.09539294    -0.95132030     0.58370848    -0.59291694
Ni     -5.82226159     2.47642394    -8.00497921    -0.64522466    -1.27246966    -0.35126491
Ni     -5.87413827     2.20200062    -4.11350624     0.62737206     0.25472109     0.93867988
Ni     -9.77124230     6.62097835    -7.96965110    -0.29300421     0.05963132     1.09497852
Ni     -9.86382176     6.48274335    -3.86784949     1.15756450    -0.89649570    -0.94841701
Ni     -1.86719794     2.09073422    -8.00648183    -0.19024759    -0.38270329     0.48693905
Ni     -5.93808681     6.37129176    -3.91586040     0.97262626     0.52707786    -0.72049767
Ni     -6.00694824     8.70361532    -5.97288802     0.64523251    -0.93356577     0.86331140
Mo     -6.09038989     0.25222841   -10.20280781     3.18206602    -0.89658115     0.12638892
Mo     -9.70704266     8.65747309    -6.38177923     0.00259096    -0.37921219    -1.63630905
O      -1.98156086     1.79964753    -1.84187781     1.41307796     1.16443246    -0.32822404
O      -2.03524171     1.74197361    -6.04788168     0.58540648     2.01532572    -0.14725266
O      -5.88523048     6.77813732    -1.98358412     0.33329726    -1.13687407     0.28292957
O      -5.99850961     6.89364311    -5.94057249     0.79054521    -0.82487725     0.19681746
O      -5.82516514     2.09388888   -10.13298088    -0.01038091     0.39487512    -0.18732334
O      -5.89643274     1.83328686    -5.96500230     0.68375943     1.26765198     0.54519622
O      -9.70847289     7.01426421    -9.74787321    -1.24458208    -0.16972473    -0.63797042
O      -9.73792990     6.76288278    -6.04721586    -0.20424542    -0.17241055     0.18138209
O      -3.86104221     2.42357067    -3.99752958    -0.90967090    -0.25661815    -0.14395074
O      -3.72602600     2.38360171    -7.97337783    -1.27225880     0.66528493     0.60724678
O      -7.77840148     2.35730556    -4.02246754    -0.23964537    -0.05869569    -0.64570831
O      -7.88380460     2.42372371    -8.10161806     1.16668753     0.45295684     0.75131534
O      -3.88762345     6.28144579    -4.02890335     0.05790368     0.69718189     0.49205269
O      -3.92648160     6.30792861    -7.94148121    -0.31697693     0.33094668     0.00306345
O      -7.82809581     6.21562166    -4.04084515    -0.13084434     1.27386487     1.09311773
O      -7.78899103     6.43127881    -7.95852151    -0.60164340    -0.58886527    -0.03818213
O      -3.81363964     4.34718151    -1.97478010     0.15966420    -0.07174957     3.07583946
O      -3.75278300     4.43197202    -5.96191497    -0.67225625    -0.47383247    -1.54732525
O      -7.96513907     4.29808880    -9.98508101     0.45371221     0.28774755    -1.51012536
O      -7.98049567     4.39512745    -5.99921191     0.20741835    -0.26549991    -0.72562004
O      -3.95747454     0.03802826    -9.99627733    -0.02489204     0.42449035    -0.18450962
O      -7.89822915     8.69047498    -6.10113347    -0.18874195     0.02212159     0.50061985
O     -11.49095265     8.65177400    -6.13881276    -0.76363145    -0.21632377     0.48078005
O      -7.76944417     0.18317997    -9.94483811    -1.94193118    -0.38364007     0.17823171
O      -1.93354696     4.12208631    -4.19087163    -0.70786073     1.15351099     0.94253002
O      -9.82888896     4.57766641    -4.06690160     0.31300190     0.46799602     0.26809879
O      -5.84358278     4.32934905    -4.07367131    -1.31573351     0.14398520     0.19314642
O      -5.93462770     4.38384178    -8.00416300     0.83994160     0.03862652     0.21555006
O      -1.84945265     0.32551882    -3.90566160    -0.50055693    -0.86985329    -0.96642587
O      -5.62158903     8.46609557    -7.90070305    -0.59976734     0.30435274    -0.88106736
O      -9.85578290     8.33517580    -3.88156217     0.16843074     0.11960784    -1.39379302
O      -5.76518717     0.55650461    -8.17357761    -0.12262368     0.71407908     0.82486835
