# total energy = -630.44516451 eV

CRYSTAL
PRIMVEC
        0.00279571     0.02951795    -7.98606283
       -7.83802570     0.01298533    -3.99532603
       -3.92160916     8.71933433     0.00634407
PRIMCOORD
56 1
Li     -3.86845485     2.33934640    -1.86443931    -0.64775749    -0.00536599    -0.28703184
Li     -3.79087478     2.06041829    -5.97849052    -0.73268893     0.45173907     0.08868272
Li     -7.82980934     2.40026384    -9.78868269     0.29885035     0.11427457    -1.05819334
Li     -7.91709199     2.31090311    -5.99540509     0.48587608    -0.46317870     0.52113546
Li     -3.93816659     6.71121665    -2.02289639     0.05024680    -0.22555290     0.08236361
Li     -3.90063819     6.28837034    -5.91665045     0.05139229     0.38741693    -0.13036962
Li     -7.78352078     6.56166480   -10.06007978    -0.11977396    -0.37812933     0.14228907
Li     -7.81574925     6.65181760    -5.68539807    -0.36099111     0.00868220    -1.02462556
Ti     -2.04745656     2.39764137    -3.97901641     0.08290761    -0.79453185    -0.31151489
Ti     -5.86054693     6.72713938    -7.92507044    -0.16081302    -0.37546781     0.46991673
Ti     -7.71847800     4.45996550    -7.67970723     0.03404065    -0.41296675    -0.61712516
Ti     -7.84789360     4.33264733    -3.85586449     0.37805823    -0.25194292     1.17064356
Ti     -3.86456549     4.32901692    -7.79567287    -0.16573260     0.45336342     1.45541115
Ti     -4.16594706     4.47727963    -3.80949152    -0.29684590    -1.26715862     1.01256321
Ti     -2.07840364     0.08378012    -2.13434784     0.50333296    -0.29853162    -0.45802179
Ni     -5.79145984     2.13256041    -7.86706065    -0.73865847     0.03353256     0.09153094
Ni     -5.90522421     2.08749854    -4.00574049    -0.53083808    -0.50688662     0.03135655
Ni     -9.78938355     6.29902619    -8.11090033     1.14845470     0.39184259     0.62483874
Ni     -9.83256890     6.51713176    -3.96301968     0.65472376     0.29794861     0.44238412
Ni     -2.03745429     2.20061960    -8.01052167     1.49430762     0.16866392     1.11546874
Ni     -5.91398692     6.75974289    -4.07118985    -0.16254242     0.29556557    -0.23732389
Ni     -1.98201469     0.15460328    -6.10097632     0.48080214    -0.17739263     1.24578413
Mo     -9.83511634     8.67280146   -10.15400539    -0.21432170     1.23268350    -1.52276204
Mo     -9.79335138     8.69025146    -6.31621448    -0.77653069     1.10511002     0.67782120
O      -1.96585656     2.06335589    -1.90378633    -0.12538983    -0.36690290    -0.95535596
O      -1.89243169     2.02961829    -6.00649657    -0.33560907    -0.92378865    -0.22752883
O      -5.91063606     6.90076666    -2.26448049     0.63052928    -0.62316135     1.04862543
O      -5.93044599     7.00830361    -5.98379554     0.12080899    -0.29815291    -0.17919439
O      -5.86496247     1.87147131    -9.70126065     0.36666222    -1.03097382    -0.47070356
O      -5.97611846     1.95041334    -6.00734840     0.70940458    -0.86449395     0.02555928
O      -9.77473245     6.66398562   -10.04786518    -0.18094746     0.73837541    -0.43346335
O      -9.83493115     6.82110829    -5.78718572     0.37327983     0.33520852    -0.82634719
O      -3.90400468     2.39070696    -3.93320059    -0.21960107     0.52607946    -0.18217650
O      -3.87708974     2.34941294    -7.90993703    -0.97720433     0.82734225    -0.35013590
O      -8.03035085     2.32512273    -3.93848056     1.25725198     0.79511766    -0.52878379
O      -7.70432021     2.42851534    -7.96710054    -0.83453526     1.15671470     1.01401320
O      -3.80997049     6.31393069    -3.97834958    -1.21413374    -0.10687346    -0.45593006
O      -3.92825372     6.41218318    -7.91171470    -0.08829310    -0.86234950    -0.27957744
O      -7.90423853     6.41967018    -3.91987464     0.71832483    -0.21035509    -0.26083741
O      -7.79126496     6.40474619    -8.15093225    -0.29291187    -0.63808358     0.84942600
O      -3.85404429     4.33032505    -2.01691585    -0.28790601    -0.09639779    -0.20933068
O      -3.75225087     4.22789777    -5.95024758    -0.37061801     0.63321805    -1.27289543
O      -7.74377376     4.43559255   -10.09487579     0.33741454     0.01960042     0.95000195
O      -7.75272912     4.65808903    -5.93823387    -0.30826497    -0.36907123    -0.34451269
O      -7.90024329     8.70253834    -9.94602034    -0.82538281     0.31943448    -0.04832794
O      -3.99837571     0.11123954    -6.19081941    -1.07964400    -0.14203458     0.05317391
O     -11.73534388     8.70972748    -6.11274689     1.31817064     0.47543539    -0.55441044
O     -11.59431662     8.62243809    -9.92595310    -0.56695685     0.47483269    -0.16143977
O      -9.72315258     4.32178387    -7.99818117    -0.20000358     0.35756226    -0.10630095
O      -9.70606524     4.55990687    -3.96687101    -2.74482221     0.00289346    -0.65744630
O      -5.94290344     3.94248771    -4.09302757     0.89589574     0.06956379     0.03568056
O      -5.86850062     4.67487915    -7.83308418     1.71268545     0.15781244    -0.68231006
O      -2.22152049     0.43614813    -3.99796938     1.05957323    -0.04394033    -0.08611700
O      -5.76909076     8.53400101    -8.16580361    -0.22488208     0.47166055     0.56171760
O      -5.95130092     0.17884348    -4.10350349     0.49285162    -0.03796038     1.57836473
O      -9.82586581     8.12921896    -8.06834809     0.28829428    -0.29565675    -0.33816426
