# total energy = -630.22330143 eV

CRYSTAL
PRIMVEC
        0.00279571     0.02951795    -7.98606283
       -7.83802570     0.01298533    -3.99532603
       -3.92160916     8.71933433     0.00634407
PRIMCOORD
56 1
Li     -3.90249521     2.56305356    -1.83646924    -0.27347455    -0.29285651    -0.57651537
Li     -3.90278415     2.26552672    -6.13584405    -0.14042342    -0.38943247     1.16928165
Li     -7.77018577     1.99056419   -10.04137330    -0.11755555     0.29709614     0.53966683
Li     -7.88799891     2.23516362    -6.06813794     0.27644537    -0.36197059     0.94116516
Li     -3.88539850     6.34401360    -1.78327771    -0.08574345     0.71308968    -1.12215655
Li     -3.84123720     6.39926744    -5.79536982    -0.21681192     0.41608884    -0.58464699
Li     -7.69124998     6.37643676    -9.93728729    -0.50615109    -0.35166185    -0.18773607
Li     -7.79087657     6.77374183    -5.90587228    -0.35589934     0.17915140     0.22464633
Ti     -1.88717455     2.43522933    -4.08852263    -1.70809198     0.09208523    -0.45886458
Ti     -5.80756949     6.79585984    -7.93292881     0.41535633     0.18979019     0.03341599
Ti     -7.67770324     4.42487626    -7.65001976    -1.49648154     0.65948157    -1.34913682
Ti     -7.98981893     4.25811170    -3.84135722     0.89008087     0.37247301     2.21975440
Ti     -3.87397424     4.35539520    -7.75886979    -1.00010672     0.48446586    -0.62683087
Ti     -4.16271503     4.41667115    -3.75572503     1.53008489     0.19667864     0.69235544
Ti     -2.16749825     0.12555727    -2.17212614     0.64945556    -0.66365707    -1.19176389
Ni     -5.83406831     2.17499588    -7.92166773    -1.37130329    -0.43751840    -0.66308208
Ni     -5.87709410     2.18344257    -3.84492388    -0.36987164     0.28712117    -1.25756146
Ni     -9.87631703     6.49562706    -7.84067483     0.39020645    -0.90837887    -0.91755172
Ni     -9.68049279     6.47328968    -4.04985923    -0.41454434     0.54865074    -0.09375193
Ni     -1.87913402     2.07001777    -8.04335745    -1.51047687     0.04439677     0.45552510
Ni     -5.84576410     6.60921115    -3.98410878    -0.00994258     0.76746024    -0.11645291
Ni     -1.95105012     0.15658032    -5.95793183    -0.10088426    -0.32558331     0.23739709
Mo     -9.81215253     8.50463157   -10.31926234    -1.91528518     1.52547837    -0.99835762
Mo     -5.93689009     0.13267623    -6.36817157     0.16809599    -1.13842537    -0.08052895
O      -1.96355088     2.01132452    -1.99820684    -0.20410591    -0.42627192     0.07177378
O      -1.93006226     1.97271608    -6.00655463    -0.16018170     0.29693266    -0.48336861
O      -5.84414151     6.89096823    -2.07175978     0.07542530     0.10610519     1.27239836
O      -5.84931658     7.04021923    -5.85148245    -0.46260165    -0.62571702    -1.26677028
O      -5.88703374     1.88071605    -9.89647428     0.60879488    -0.30440551     0.67479184
O      -5.96759949     1.95382785    -5.96955148     0.87886733     1.34295733    -0.57000588
O      -9.67466216     6.67498321   -10.22411969    -0.25163074    -0.92941459     1.28601658
O      -9.87532636     6.83923063    -5.84603701     0.79807190     0.32214107    -0.27248728
O      -3.84619020     2.47431290    -3.89966463    -0.49467908     0.31119207    -0.21755084
O      -4.00641166     2.38975150    -7.96733870    -0.06344483     0.32177581     0.01305826
O      -7.88832267     2.24773856    -3.89556314     1.29495593     0.63516965    -0.51537645
O      -7.87820472     2.41120396    -7.93852940     1.91172967     0.62411470    -0.61026538
O      -3.92279192     6.39766291    -3.93759137    -0.14001794    -0.77603670     0.16755817
O      -3.91941328     6.40684102    -7.95900513     0.06665308     0.32504246     0.62919297
O      -7.71510342     6.21723045    -3.95598890    -0.47122915     0.05315758    -0.86987519
O      -7.98364545     6.34236734    -7.89035090     1.01116242    -0.02324128     0.24723544
O      -4.11163792     4.56623708    -1.94411519     0.05605460    -1.16609024    -0.37417843
O      -4.05140186     4.53182226    -6.02564609     0.37325535    -0.49280833     0.55267818
O      -7.88699747     4.38657336   -10.01354346     0.06163642    -0.54404243    -1.18358885
O      -7.78572672     4.14376689    -5.94000386    -0.23190167     0.44245299     0.48026617
O      -7.91605361     8.59501701    -2.17433220     0.50583541     0.43954282     0.12133023
O      -4.11220688     0.12368210    -6.01055741     0.03066386    -0.28613443    -0.13731017
O      -7.72711894     0.13374313    -6.10814372    -0.39238447    -0.29316183    -0.28393231
O     -11.61069301     8.54195633   -10.00954739     0.72373977     0.58345926    -0.21364698
O      -2.03275998     4.37091768    -4.05138316     0.57758237     0.28677910     0.50747088
O      -2.08060452     3.96603372    -0.17005634     1.64741743     0.21537287     0.36728885
O      -5.89489946     3.99904323    -4.08273540    -1.80415925     0.34629169     0.41063385
O      -5.91531583     4.84497111    -7.92653893     0.95383766     0.19961090    -0.27883299
O      -1.92710969     0.48389040    -4.10691893    -0.29931512    -0.98487549     1.60316718
O      -1.96276112     0.06678524    -8.07212962     0.06344288    -1.15034032     0.17887264
O      -6.01060898     0.36780155    -4.09564693     0.72906904    -0.56091281     1.32976407
O      -9.74818509     8.30760270    -8.18747114     0.01498620     0.00478749     0.93248471
