# total energy = -630.58425831 eV

CRYSTAL
PRIMVEC
        0.00279571     0.02951795    -7.98606283
       -7.83802570     0.01298533    -3.99532603
       -3.92160916     8.71933433     0.00634407
PRIMCOORD
56 1
Li     -3.99318583     2.28933902    -1.83590061     0.13640755    -0.05471972    -0.81686121
Li     -3.80408349     2.26072386    -6.09945429    -0.61097482     0.03458538     0.50976198
Li     -7.87200210     1.96625443    -9.91181681     0.49821409     0.17204290    -0.19928084
Li     -7.85014756     2.20048860    -5.95152789     0.14417907     0.28793825     0.02222001
Li     -3.82987697     6.51475707    -1.94457493    -0.21248642    -0.32266198    -0.34017692
Li     -3.88098587     6.57519840    -5.98005248    -0.47031095    -0.04800646     0.44847469
Li     -7.70810795     6.42273470    -9.92274152    -1.01856049     0.13753703    -0.22166923
Li     -7.66709668     6.31831024    -5.77330973    -0.65164885     0.19967092    -0.61056250
Ti     -2.03243559     2.40799047    -4.07090648    -0.68248968    -0.09279002     0.45226311
Ti     -5.88057857     6.76483052    -8.05491961     0.22825999     0.53206828     0.21314567
Ti     -7.67709579     4.36687341    -7.70563031    -0.89487978     0.01394079    -0.90963375
Ti     -8.02996604     4.40447282    -3.71916454     0.12163961     0.06899064     0.76287319
Ti     -3.95779088     4.37951609    -7.73898710     0.76279798     0.30208535    -1.16046709
Ti     -4.22946466     4.32588606    -3.64538592     0.41941583    -0.67054492    -0.11249906
Ti     -1.73024112     0.07800474    -2.21595308     0.54292805     0.44734347    -0.35719805
Ni     -5.88348334     2.05019131    -7.96547029     0.78278091     0.04372252    -0.68660576
Ni     -6.13163725     2.22405233    -3.96880126     1.84387936    -0.07762813    -0.08879134
Ni     -9.71609909     6.34038180    -7.97760066    -1.63133418    -1.50969446    -0.07005006
Ni     -9.82699382     6.69960288    -3.99235251     0.38342781    -0.54033223    -0.32156981
Ni     -1.98497041     2.07554838    -7.92401227    -0.17148427     0.57599708    -1.28430273
Ni     -5.97795607     6.64615313    -4.04052153     0.84665048    -0.23119578     0.75711820
Ni     -1.85136256     0.04825819    -5.94277074    -0.50698821     1.26949552    -0.38890648
Mo     -9.76939750     8.60784076   -10.28111939    -1.64435422     1.27697421    -0.75940436
Mo     -5.67086264     0.07875632    -6.32824261     0.08822381    -0.51569223     0.16880481
O      -1.90197010     2.03243962    -2.12315949    -0.90051424    -0.97866277     0.75395515
O      -1.92280159     1.92961739    -6.03694609    -0.04763557    -0.20699773     0.20563206
O      -5.95489579     6.83503076    -1.99136210     0.84830497     0.29364581    -0.90322170
O      -5.79682342     7.01239171    -5.89718832    -0.84464071    -1.68212592    -0.24980664
O      -5.88280749     1.87276732    -9.87015477    -1.00561432    -0.16256926     0.51884921
O      -5.81611996     1.95763064    -6.10957232    -0.92398989     0.46575509     0.58905030
O      -9.85592869     6.74033306   -10.10044443     0.28552001    -0.53930118     0.54911635
O      -9.78848067     6.85031503    -5.88125196     0.21687483     0.60456702     0.14976622
O      -3.98223163     2.36903096    -3.97529348     0.37289407     0.23312138     0.00319189
O      -3.96626647     2.38512329    -8.02648864     0.10035337    -0.25137542     0.73650652
O      -7.98787180     2.45062262    -3.96655772    -0.01844125    -0.49149528     0.17849267
O      -7.79195332     2.43750286    -8.00544745    -0.16383896     0.54206965    -0.06379982
O      -4.08655760     6.12168062    -4.00055963     0.69255515     2.28823299    -0.29264152
O      -3.88195327     6.50824198    -8.00744375    -1.07035346    -0.73671184     0.42985227
O      -7.87025876     6.44050539    -3.91205174    -0.01333682    -0.20540125    -0.57806741
O      -7.87840466     6.42609673    -7.93965200     1.29014065    -0.96586563     0.44319519
O      -4.10771861     4.38314486    -1.90175057     0.65442170    -0.34340214     0.26392621
O      -3.85749446     4.20109684    -6.01795965    -0.46246732     0.47581974     0.46222703
O      -8.00414839     4.60040397    -9.95458929    -0.02669667    -0.72221346     0.54704239
O      -7.84270097     4.31838736    -5.96384642     0.33893016     0.73609245    -0.00677582
O      -8.06536851     8.74176689   -10.01732420     1.43869935    -0.16220619    -0.32584941
O      -3.94977722     0.16035955    -5.91192642    -0.11249751    -0.56424453    -0.96313857
O      -7.74637060     0.16465038    -6.10675258     0.08239071    -0.64981069    -0.20329603
O      -3.94169398     8.68222654    -6.13242421     1.64708629     0.23696672     0.39732001
O      -2.07050114     4.29558592    -3.93095898     1.04785662     0.36458232    -0.13213561
O      -2.03346298     4.44808888    -0.07977946    -0.70558641    -0.03603558    -0.10177898
O      -6.06225462     4.14553289    -3.83523388    -0.55040749    -0.60150815    -0.84567316
O      -5.89223519     4.75983091    -8.05826570     0.55318521     0.14063639     0.68024237
O      -1.86532530     0.39389770    -4.09677506    -0.30044609    -0.37496325     1.28897525
O      -5.90476065     8.63143408    -8.20295004    -0.11822415     0.28255271     0.77260431
O      -5.99568099     0.34019110    -4.12793547     0.13915222     0.17852842     0.22539685
O      -9.69693709     8.10200410    -8.05989529    -0.50485404     1.41268746     0.32585752
