# total energy = -630.43272492 eV

CRYSTAL
PRIMVEC
        0.00279571     0.02951795    -7.98606283
       -7.83802570     0.01298533    -3.99532603
       -3.92160916     8.71933433     0.00634407
PRIMCOORD
56 1
Li     -4.06802050     1.88336445    -1.88444542     0.35080901     0.25789004    -0.28243123
Li     -3.90934924     2.32457934    -6.01591154    -0.19752021     0.18910544     0.29007318
Li     -7.88625100     2.49120467    -9.98645693     0.37576000    -0.90413901     0.09341380
Li     -7.85342421     2.26048416    -5.83328590     0.13400007     0.35731750    -0.29453114
Li     -3.84590534     6.35136273    -2.03866320    -0.32880164     0.46442739     0.15541889
Li     -3.99338934     6.55214470    -5.87886982    -0.01177510    -0.21864535    -0.41342147
Li     -8.00493561     6.51450646   -10.01435657     0.57987845    -0.10589497     0.36528726
Li     -7.93728365     6.66751453    -5.99306009     0.53498216    -0.18943104     0.17533943
Ti     -1.93597887     2.15131174    -4.05418569    -0.16336084    -0.40860087    -0.16191189
Ti     -5.83653224     6.73321245    -8.11166180    -0.14609577    -1.85057017     0.68655300
Ti     -7.74974868     4.41137136    -7.65298205     0.15242060     0.84665862    -1.12907687
Ti     -7.76985473     4.44744669    -3.73679902    -0.07733593    -0.33079728     0.73957431
Ti     -3.82070235     4.31465087    -7.84394549    -2.20211183     0.88116024     1.54465042
Ti     -3.97807939     4.36214592    -3.67678496    -0.04152570     0.25962727    -0.56385822
Ti     -1.70488654     0.11896048    -1.94428566    -0.80257245    -0.80026424    -1.27090135
Ni     -5.87569373     2.04776121    -7.90968223    -0.89513842     0.56163210    -0.60630665
Ni     -5.91917042     2.25012744    -4.07072402     0.45365395     1.54525428     0.35049074
Ni     -9.81880337     6.32814841    -8.03065140     0.31237856    -1.18518709    -0.21101351
Ni     -9.84563049     6.72112418    -4.04039956    -0.48114910    -0.24515211     1.83471214
Ni     -2.01120478     2.25354175    -7.95622565     0.72226679    -1.26153938    -0.15161203
Ni     -6.01189771     6.63519963    -4.06316063     0.71898075     0.60942785     0.13248296
Ni     -2.02344831     0.10545740    -5.95485297     1.31860248    -0.61584737    -0.31334600
Mo     -9.83554902     8.59297475   -10.22101865    -2.55269952    -0.29244456    -1.37982292
Mo     -5.79355213     0.07749754    -6.36058200     0.79511728    -0.56581515     0.87535927
O      -1.92505928     1.97975322    -2.06150460    -0.64163449    -0.16306889     0.91678005
O      -1.96174978     1.95296381    -5.99249887    -0.38299073     0.31212570     0.01685839
O      -5.88348597     6.73545841    -2.08943172     0.02278514     1.61679536     0.65006573
O      -5.84560065     7.03425155    -5.95681358    -1.31941984    -0.79020112     0.25898255
O      -5.97515569     1.71942928    -9.64546131     0.50816536     0.22847416    -1.50840047
O      -5.91205057     1.95568469    -6.15349616    -0.05844212     0.84831821     2.28412942
O      -9.88359378     6.52665530   -10.09714714     0.17226830     2.08888351    -0.44279742
O      -9.84477259     6.88674560    -5.84207674    -0.03293711     0.27619329    -0.63159328
O      -3.83236518     2.46166306    -3.90757133    -1.18400462    -0.71503029    -0.51985172
O      -4.06466479     2.32196907    -7.98913046     0.70898593     0.84956279     0.05070789
O      -7.75385986     2.40679193    -3.95253829    -0.96785388     0.72679835    -0.07719635
O      -7.90690117     2.43215544    -7.96200700     1.25751196     0.32613307     0.33109289
O      -3.88719220     6.23861047    -4.03936143    -0.51214856     0.34301979     0.65185122
O      -3.94847584     6.59804316    -7.94777705     0.26155140    -0.95544836    -0.84639389
O      -7.93701219     6.48428347    -4.01786479     0.43360454    -1.60643308     0.02261496
O      -7.84275417     6.40642733    -7.97560933    -0.80831259    -0.59477829     0.22127364
O      -4.10323697     4.47315033    -1.91559169     0.16856907    -0.15319735     0.50278366
O      -4.17978668     4.45701201    -6.07168881     0.79760955    -0.67459642    -1.29039514
O      -7.96437999     4.29744053    -9.91538523     0.45531404     1.10218083    -1.70753224
O      -7.77776846     4.35631958    -5.91082782    -0.55057222    -0.00739406     0.33179403
O      -8.03334696     8.52967025   -10.07680614     0.30883083     0.80030695     0.32732771
O      -4.00701432     0.11256547    -6.09467184    -0.55552031    -0.12047763     0.01657714
O      -7.76575466     0.11221281    -6.17709482     0.34793394    -0.07243631     0.34138177
O      -3.87698089     8.62725003    -5.98658812     0.90959109    -0.07207390     0.02492510
O      -1.99769914     4.40578887    -3.93844676     0.26049130    -0.30660459     0.05396264
O      -2.01367146     4.10749204    -7.97140746     1.64941505     0.08465604    -0.26941054
O      -5.89813865     4.20198847    -4.04658174    -0.39946530    -0.58749108     0.47529837
O      -5.93464244     4.80615396    -8.00787072     0.47999584     0.21253912    -0.08861203
O      -1.99170788     0.26278974    -4.00643186    -0.11895735     0.55660442     0.59873349
O      -1.95055524     0.09679296    -8.03576384    -0.12422653    -0.41847391    -0.55539179
O      -5.99645805     0.44640074    -4.09154552     0.48825958    -1.08333569     0.58158347
O      -9.78857548     8.11365755    -8.02928532    -0.28835012     0.44176430    -1.01741450
