# total energy = -630.57990140 eV

CRYSTAL
PRIMVEC
        0.00279571     0.02951795    -7.98606283
       -7.83802570     0.01298533    -3.99532603
       -3.92160916     8.71933433     0.00634407
PRIMCOORD
56 1
Li     -3.98492633     2.10451123    -2.00853942    -0.26963408     0.65470399     0.22513689
Li     -4.00103892     2.10626041    -6.02636649    -0.02731479    -0.24533050    -0.01876814
Li     -7.99611219     2.40562431    -9.95923843     0.93170219    -0.35235184    -0.31744434
Li     -7.74443991     2.47022973    -5.85009038    -0.47050384    -0.15945013    -0.44981135
Li     -3.96923816     6.49007906    -1.88770862     0.50150973    -0.15519028    -0.61420161
Li     -4.03902645     6.32665859    -5.79393321     0.82786912     0.28798203    -0.64470719
Li     -7.65780768     6.56468004    -9.94835960    -0.87851886    -0.31646548    -0.04299433
Li     -7.76328592     6.60610014    -5.90189852    -0.37862973    -0.05109861     0.23582086
Ti     -2.00874986     2.26486652    -4.09724847     0.04067298     0.39360942     0.16829801
Ti     -5.75864956     6.62508265    -7.92413653    -0.06250413     1.19485041    -0.29956744
Ti     -7.87731761     4.45435563    -7.80837372     0.31873036     0.31091423     0.23490823
Ti     -7.71169759     4.35883710    -3.73088754    -0.91760983     0.37837954    -0.69755076
Ti     -3.84125251     4.25666118    -7.82743478    -0.04348733     1.01783278     1.82959570
Ti     -4.04078258     4.42696866    -3.83427737     0.22181382    -0.28677027     0.95767529
Ti     -2.15314578     0.11317266    -2.11968710     0.72969193    -0.88473655     0.84302462
Ni     -5.94119548     2.35136152    -8.04411968     0.80632920    -0.26240137     0.92160476
Ni     -5.84928047     2.16442979    -4.08711411    -0.89618976     0.48161592     0.63418207
Ni     -9.82065191     6.56019332    -7.86465598     0.35384817    -0.44674287    -0.58708584
Ni     -9.79809092     6.16218628    -3.83827739     1.27701915     0.58545240    -0.58498384
Ni     -1.99710261     2.20696736    -8.01571662     1.36565663     0.00256170     0.47148843
Ni     -5.84128067     6.75928032    -3.98101298    -0.23279854    -0.46433080    -0.23252886
Ni     -5.88145237     8.69401240    -6.01936120    -0.09301972     0.33275647    -0.15903833
Mo     -5.92540689     0.06623996   -10.18916698    -2.19227007    -0.82972850    -0.07535810
Mo     -9.88442480     8.62028268    -6.29981690     1.47182485     0.49920897    -0.17373072
O      -2.00010672     1.99830630    -1.90744502     0.21996320    -0.33135236    -1.07171320
O      -2.00598810     1.84774284    -6.03419568     0.10808191     0.01485185     0.23132884
O      -5.82110840     6.85647983    -2.12765487    -0.27486210     0.19598375     0.83815824
O      -5.85482412     6.81013257    -5.94628699     0.27972649     0.50775057    -0.02520123
O      -6.00471453     2.13930506    -9.91280780     1.08403955    -0.78459036    -1.08147000
O      -5.94669698     1.92485763    -6.01698810     0.79767639     0.28974211    -0.01170310
O      -9.78106049     6.85556872    -9.84372813    -0.03751488     1.14240069    -0.08500565
O      -9.69732527     6.76481649    -5.98285800    -1.34631083    -0.66283606     0.49079436
O      -3.89013292     2.35146804    -4.05975680     0.03812720     0.34059139     0.33826529
O      -3.90893471     2.40539941    -7.98902853    -0.50059823    -0.77149134    -0.23487996
O      -7.81006648     2.27825731    -3.97263334    -0.42376376     1.34024486     0.05096585
O      -7.80036166     2.51438714    -7.90456882    -1.60770665    -0.60206275    -0.98820094
O      -3.89101018     6.34488188    -3.96558408    -0.21558473     0.87948601     0.29840814
O      -3.82034696     6.29018114    -7.95818577    -1.40840857     0.32735669     0.13744785
O      -7.82574347     6.38733422    -3.89929376    -0.11015469    -1.24357008    -0.26198559
O      -7.69399948     6.41311649    -7.96521601    -0.19162997    -0.15143730    -0.11864489
O      -4.02181250     4.50417430    -2.03773393     0.15447188    -0.40242630    -0.27260291
O      -3.85508262     4.50663727    -5.98305602    -0.10885427    -0.78724522    -1.66656084
O      -7.80869195     4.48206609    -9.97097576    -0.32211096    -0.35807994     0.39057053
O      -8.01556522     4.40733178    -6.08585332     0.45073300     0.51526090     0.90863393
O      -4.05644036     0.14898387    -2.03942307     1.74753246    -0.24453637     0.25760073
O      -7.99141356     8.60376838    -6.01015012     0.16410588     0.84026682    -0.25807964
O     -11.66623316     8.67809821    -6.11862734     0.08194012    -0.29393980     0.40622135
O      -7.70008047     0.15856863   -10.07906212    -0.78849581    -0.79286719     0.29847255
O      -2.07438660     4.30822499    -4.10621964     1.20035668    -1.47496029     0.14094947
O      -9.70201593     4.17017242    -4.15355039    -0.58548036     0.52836053     0.79747743
O      -5.91704510     4.03443451    -4.12103819     0.68527385     0.10040434    -0.35989486
O      -5.82451949     4.30572927    -7.89214053    -0.59101504     0.53087570    -0.56077882
O      -1.89801295     0.31294378    -3.95248274    -0.16448301     0.26700161    -0.42357173
O      -5.78557688     8.49747241    -8.13466009    -0.24562051    -0.72858062     0.74036208
O      -5.80951588     0.31819118    -4.00287310    -0.23857879    -0.29481881    -0.41726812
O      -5.86528499     0.49890746    -8.08236607    -0.20107080     0.18412181    -0.12831248
