# total energy = -630.80451595 eV

CRYSTAL
PRIMVEC
        0.00279571     0.02951795    -7.98606283
       -7.83802570     0.01298533    -3.99532603
       -3.92160916     8.71933433     0.00634407
PRIMCOORD
56 1
Li     -3.85069137     2.06774615    -1.88751147     0.06171831     0.22793642    -0.24139330
Li     -3.91759610     2.28322538    -5.97248587     0.33357324    -0.11605172    -0.04925408
Li     -7.75814628     2.33131628   -10.02991578    -0.18270804    -0.24040826     0.32342486
Li     -7.69752391     2.42720863    -5.92416347    -0.15257393    -0.18487200     0.31883466
Li     -3.85000596     6.50148261    -2.15473601    -0.48520813    -0.27837295     0.64944027
Li     -3.93085943     6.33321461    -6.04290179     0.23724985     0.10377498     1.00758150
Li     -7.84246877     6.80138392   -10.02043201    -0.03439164    -0.81516416     0.04564499
Li     -7.84221047     6.62534886    -5.96507088    -0.09100025    -0.17853236     0.35200389
Ti     -1.87995827     2.23123605    -3.96356258    -0.90367807    -0.14091999    -0.18002155
Ti     -5.87567381     6.68559930    -7.95463269     0.10986563    -0.06832048    -0.63768343
Ti     -7.87341001     4.41312057    -7.74675368     0.30003842     0.97862605    -0.26459107
Ti     -7.96490387     4.28862261    -3.73400242     0.72963119     0.58938145    -0.58088281
Ti     -3.89543953     4.39097374    -7.75988521    -0.20881456     0.57673957    -0.42522757
Ti     -4.03531145     4.33763883    -3.80609002    -0.61987865     0.27428282     2.49531556
Ti     -6.00713606     8.69738486    -2.15836476    -0.43672882    -1.04410146     0.55080364
Ni     -5.79826830     2.43306502    -8.07137700    -1.08695559     0.22508484     0.58258061
Ni     -5.75690030     2.17995262    -4.08041734    -2.06994793    -0.20824908     0.16882796
Ni     -9.79792620     6.56180464    -7.89862285    -0.32410357    -0.00316083     0.64834721
Ni     -9.82063265     6.55460878    -3.99982151     0.60217872    -0.48191065    -0.14780610
Ni     -1.97768062     2.11709176    -7.88334278     0.64992606    -0.01960052    -0.51585964
Ni     -5.92187873     6.52861730    -4.03401942     0.75200609    -0.24634741     0.38773020
Ni     -5.89702052     8.71815645    -5.94631666    -0.35456937    -0.12334910     0.17936436
Mo     -6.04817169     0.10859699   -10.23361491     1.41001224    -1.33074951     0.49249791
Mo     -9.82155877     8.70922511    -6.34771159     1.08285464    -0.75381457    -0.39100637
O      -1.83202207     1.85658845    -1.93355349    -0.57862434     0.32997625    -0.01340570
O      -1.93604277     1.87336020    -5.92692683    -0.29215787    -0.47838896    -0.29520630
O      -5.83698638     6.75463291    -2.07425319    -0.28175699     0.19354477     0.52042416
O      -5.85881292     6.77065341    -5.99126966    -0.22525873     0.94850710     0.59608908
O      -5.74252905     1.99385969   -10.04067618    -0.72609524     0.05339655    -0.59593972
O      -5.74659920     2.01174721    -6.03985206    -1.12337400    -0.40384578     1.04013834
O      -9.72722859     6.95257788    -9.69731375    -1.25958660     0.89665648    -0.95886940
O      -9.81488314     6.74195074    -5.95157275     0.50808168     0.75738870    -0.92206226
O      -3.94981005     2.30334427    -3.94566636     1.83143282     0.35517015    -0.13915523
O      -3.91532765     2.55086392    -8.02746146     0.82865426    -1.82075671    -0.04423649
O      -7.83222399     2.25812757    -3.92150007    -0.05988428     0.98016080    -0.80222976
O      -7.81248483     2.47112464    -7.90891344     0.24074531    -0.60281685    -0.58675658
O      -3.87766870     6.24672434    -4.03583356    -0.11247256     0.82917967    -0.50453187
O      -3.95724449     6.33737719    -7.94170589    -0.04625733     1.17896633    -0.04979993
O      -7.78095149     6.33374180    -4.01874229    -0.64900717    -0.80204467     0.49540023
O      -7.86697415     6.34625154    -8.01565753     0.26019287     0.23440979     0.22194288
O      -3.92416884     4.54829484    -1.98824567    -0.12307315    -0.80441084    -1.72865879
O      -3.82318066     4.36177539    -5.98968960    -0.10485391     0.04956691     0.55755719
O      -7.96255835     4.17489990    -9.98993925     0.11937761     0.63246722     0.85517453
O      -7.87717447     4.42913118    -6.01816959     0.01637786    -0.36610778     0.62262863
O      -7.87430189     8.58875730    -2.06154557     0.63196164     1.71726933     0.00824516
O      -7.91984212     8.71540050    -6.06096129    -1.16408604    -0.35252749    -0.10455782
O     -11.63954255     8.57989392    -6.25586055     1.02179500     0.64645584     0.95235779
O      -7.79239788     0.12826162   -10.12523646     0.17546936    -0.24364509     0.45846473
O      -2.05244982     4.11111064    -3.84227734     1.24769468    -0.76554523    -0.80148102
O      -9.83925984     4.58776952    -3.98104817     0.68917182     0.71780244    -0.47205310
O      -5.94717098     4.12552484    -4.05246602     0.19087345     0.21820247    -0.10003861
O      -5.88538362     4.46263701    -7.98936557    -0.23068065    -0.33500505    -0.06509204
O      -1.82798629     0.13727749    -3.96228269    -0.39663382     0.86423385    -1.16878399
O      -5.88109624     8.52247082    -7.89473613     0.02906996    -0.38591881    -0.95090342
O      -9.75645047     8.54397827    -4.03794556    -0.34509231     0.04794581    -0.20075085
O      -5.86978394     0.62717334    -8.09939286     0.27196056    -0.65848537    -0.55072936
