# total energy = -630.61644033 eV

CRYSTAL
PRIMVEC
        0.00279571     0.02951795    -7.98606283
       -7.83802570     0.01298533    -3.99532603
       -3.92160916     8.71933433     0.00634407
PRIMCOORD
56 1
Li     -3.82614194     2.45905657    -1.92909646    -0.33730606    -0.18372665    -0.04665173
Li     -3.83920257     2.18164687    -5.93992169    -0.22678781     0.06456080    -0.35394901
Li     -7.92199836     2.26391290    -9.92317450     0.49118799     0.20269261     0.03594538
Li     -7.68785667     2.14214992    -5.85815763    -0.72257416     0.32373641    -0.35780388
Li     -3.91025310     6.42745584    -2.15002997     0.42963364     0.09903201     0.68739932
Li     -4.03172860     6.59312453    -5.86090720     0.54265053    -0.11773277    -0.27665095
Li     -7.95330202     6.30585660   -10.04512534     0.18852346     0.65481486     0.53475771
Li     -7.82748862     6.39010103    -5.92863278     0.15347727     0.06007053     0.05721100
Ti     -1.94360098     2.24988071    -3.87482208     1.75643699    -1.08518876    -0.04736908
Ti     -5.83293651     6.82107405    -7.94157839     0.32806877     0.18110169     0.35819592
Ti     -7.82018613     4.34685259    -7.70891143     0.79960244     0.71999885    -0.44014529
Ti     -7.99683701     4.29578750    -3.71970627     0.67069023     0.41325201     0.37057122
Ti     -3.91709921     4.44851696    -7.72720676    -0.05295355    -0.23158751    -0.37729842
Ti     -4.02775645     4.38861690    -3.83785920    -0.65485563     0.60016761     1.33795057
Ti     -6.11229104     8.55008283    -2.09039399    -0.65205545     2.12101182    -1.96722240
Ni     -5.79646419     2.44472597    -8.04101365     0.16085509    -0.61528131    -0.36615212
Ni     -5.92055698     2.06696933    -4.03171545     0.52585475     1.02842516     0.44854702
Ni     -9.76859377     6.62841991    -7.96884033     0.12133087    -0.07521277     0.82514999
Ni     -9.78619322     6.55970599    -4.03485380    -0.38312296    -0.34581947    -0.42396372
Ni     -1.95755181     2.20253439    -7.98236829     0.40158981    -0.76705716     0.37750733
Ni     -5.93164640     6.38431771    -3.98515463     0.25726907     0.65635474    -0.25376434
Ni     -5.99604544     8.69638712    -5.98295810     0.77393361     0.43001382     0.85438444
Mo     -6.06973028     0.09084401   -10.25418328     1.23360447     1.75406445     0.51325886
Mo     -9.75152114     8.70269009    -6.36348801    -0.45248665    -0.43959147    -1.10689434
O      -1.85601505     1.94616651    -1.96515598    -0.39706607    -0.73799556     0.02578948
O      -1.92572493     1.81478031    -6.01862214    -0.64355194     0.32489571    -0.34690275
O      -5.78187534     6.72940135    -2.03418827    -0.77386192    -0.97504948     0.40377599
O      -5.88653858     6.84154139    -5.92130620    -0.48007799    -0.14797012    -0.51372159
O      -5.82826436     2.13954500   -10.07594404    -0.35087621    -1.96515912    -0.49637554
O      -5.86983576     1.90799256    -6.00881126     0.44584202     0.44284426     1.68216085
O      -9.88837300     6.99100061    -9.83934761     0.45925604    -0.94739686     0.65048736
O      -9.70823820     6.79067017    -5.99772266     0.03664923    -0.87581865    -0.81643044
O      -3.74441016     2.48899965    -3.98563721    -2.01470161    -1.65180668    -0.23096224
O      -3.86264486     2.51577746    -8.03504673     0.37204904     0.17906140     0.51769958
O      -7.85513968     2.42342098    -3.92492747    -0.30729280    -1.33394419    -0.21442876
O      -7.70829082     2.44748687    -7.93099211    -0.54719999    -0.67199751    -0.66700587
O      -3.85299967     6.31268332    -4.06127521     0.08406162    -0.16351538     0.66339650
O      -3.93253553     6.52566906    -7.89598943    -0.39783372    -1.33877347    -0.17874057
O      -7.89749034     6.23617651    -4.04914741     1.01721410     0.54981262     0.56809687
O      -7.70058803     6.38846156    -7.93313632    -0.96205479    -0.03119423    -0.27229954
O      -3.92541932     4.34755104    -2.01984344     0.51941405     0.79533052    -1.20598266
O      -3.75715158     4.35424400    -5.98365428    -0.18772343     0.06411734     0.54914752
O      -7.82992054     4.46289075    -9.91715839    -0.29434918    -0.49147749    -0.97312238
O      -7.77328295     4.25091845    -5.98147205     0.09306634     0.70791848     1.12581365
O      -7.95268483     8.61331597   -10.04061847     0.43168439     0.48608668    -0.02902459
O      -7.91881971     8.71511017    -6.02141916     0.56856106    -0.08940201    -0.07828284
O     -11.52069136     8.50610595    -6.12588576    -0.07064247     0.94081757    -0.09206774
O      -7.81144986     0.10451329    -9.99887623    -0.34067096     0.10693972    -0.01529960
O      -9.67284243     4.13600341    -7.89646653    -1.39969628     0.30831899    -0.58536139
O      -9.83014356     4.73983359    -3.98919675    -0.13097349    -0.61100085    -0.38068728
O      -5.92086163     4.19187844    -4.02164046     0.24315965     0.65207888    -0.18006312
O      -5.83848146     4.27820354    -8.03418169     0.61108072     1.26869282     0.30385744
O      -1.91120087     0.17833471    -3.94003921    -0.23989858     0.52715723     0.19321471
O      -5.68467539     8.64233681    -8.17739840    -0.70272291    -1.01996153     0.78983315
O      -9.88933242     8.45984855    -4.06379467     0.36865626     0.76067707     0.22890133
O      -5.77465534     0.65685033    -8.10561652    -0.17954520    -1.27097790    -0.69701056
