# total energy = -630.81888358 eV

CRYSTAL
PRIMVEC
        0.00279571     0.02951795    -7.98606283
       -7.83802570     0.01298533    -3.99532603
       -3.92160916     8.71933433     0.00634407
PRIMCOORD
56 1
Li     -4.09833429     2.03969490    -2.06028865     0.37579006     0.45696414     0.46934159
Li     -3.92331738     2.10383123    -5.89279891    -0.23764641     0.22448155    -0.43737843
Li     -7.87754082     2.49960301   -10.12723234     0.18541583    -0.21472775     0.67546445
Li     -7.86879920     2.22897299    -5.95676823     0.10039343    -0.18661237     0.12493186
Li     -3.80990045     6.58099634    -1.99928253    -0.37870963    -0.14783587    -0.19075736
Li     -4.05888631     6.53945637    -5.82067714     0.45441197    -0.36955146    -0.19371782
Li     -7.89177951     6.59506963   -10.12534195     0.43361428    -0.28912404     0.43408057
Li     -7.75805110     6.75648705    -5.94834453    -0.60303769    -0.22156317     0.20306533
Ti     -1.95261258     2.13497637    -4.06021460    -0.03350298    -1.48373236     0.33724610
Ti     -5.72495514     6.51831341    -8.01639392    -1.34888874     0.09769799    -0.03073826
Ti     -7.78797478     4.43218256    -7.69800663     0.16623267     0.47095987    -1.71853780
Ti     -7.77871219     4.36921847    -3.88850585     0.42067029     0.85187520     0.01200435
Ti     -3.82616263     4.27809442    -7.74532342     0.47602384     0.20002666     0.18380223
Ti     -3.81440433     4.38990080    -3.73570213    -2.33725841     0.78296855     0.65978915
Ti     -2.20872955     0.03296986    -1.85302160     0.11414912     0.57005807    -0.39502131
Ni     -5.87653312     2.20229492    -7.88189253    -0.26210000    -0.27414578    -0.55133512
Ni     -5.90233152     2.26360674    -4.01834221     0.03130284     0.72784812    -0.50710958
Ni     -9.61222762     6.45617711    -7.94608171    -1.94267223     0.33102027    -0.54089101
Ni     -9.84654609     6.61688618    -3.95519675     1.16558931    -0.43138025    -0.86730983
Ni     -1.93873262     2.14677710    -7.95447587    -0.07568378     0.48498910    -0.78498022
Ni     -5.83996058     6.56117937    -3.91310386    -1.12755940    -0.12393641    -0.88712384
Ni     -2.04667302     0.08297064    -5.98923292     0.24705419    -0.12613126    -0.39668872
Mo    -10.02705956     8.70747621   -10.31477279    -0.55174465     0.06372518     0.67708316
Mo     -5.91356425     0.08170020    -6.32224624     0.24819549    -1.02058945    -1.40214867
O      -1.88331803     1.96453106    -1.97789247    -0.99625237    -0.53530666    -0.28920857
O      -1.94972881     1.99233479    -6.05541911    -0.25916610    -0.72801969     0.94882740
O      -5.81158175     6.86827275    -2.02229302    -0.10721681     0.06301757     0.31901528
O      -5.91235356     6.88687494    -6.04360284     0.41862258     0.95239344     0.53763283
O      -5.98457767     1.85481785    -9.80658661     0.48002773    -0.04918192     0.18562288
O      -5.91254400     1.96504320    -6.02450210    -0.06209083     0.86830980     0.30503696
O      -9.74776945     6.87454633   -10.01539286    -1.00920463    -0.92066482    -0.50159609
O      -9.80586078     6.78595074    -5.89707792     0.56553961     0.38523001     0.41601457
O      -3.92977003     2.38010927    -4.00844978     0.94642490     0.45142444     0.37231775
O      -3.94749929     2.38480452    -7.87064704    -0.53644303    -0.76841203    -0.71372697
O      -7.83688752     2.30837928    -4.05479671     0.20536837     1.21172554     0.20675904
O      -7.89310698     2.43097850    -7.97395472     0.96169776     0.84715117     0.21356583
O      -3.99814794     6.34450440    -3.96897022     0.88839268    -0.60347469     0.17900050
O      -3.84253206     6.30018817    -8.02460269    -0.44574720     0.75713308     0.56798844
O      -7.85600025     6.45113667    -4.03673523     0.38593344    -0.98623841     0.35871086
O      -7.76671428     6.47329298    -8.02722487     0.58161019    -1.07424109     0.08736441
O      -4.14889773     4.37524944    -1.96906638     0.99339001    -0.30309499    -1.06515751
O      -4.06838675     4.40512969    -5.98273792     0.49691782     0.19208523    -0.65482202
O      -7.85659783     4.45759099   -10.12523100     0.09858498     0.07615689     0.48398526
O      -7.79716421     4.61378670    -5.99622796    -0.13953661    -0.53734387     0.67485540
O      -7.91507402     8.65432209    -2.14831056     0.27316658     0.84590376     0.56999470
O      -4.09542420     0.05373862    -6.06175679     0.72469946     0.15031665     0.31259165
O     -11.59208209     8.67451110    -6.01171006    -0.64763751     0.45090638    -0.24454980
O      -3.96075103     8.71288426    -6.17878402     1.23135857    -0.36899330     0.55265158
O      -9.75622272     4.49535671    -8.03596562     0.41398410    -0.48082578     0.24215801
O      -1.95196922     4.19438660    -8.02345198     0.01269400    -0.25705438    -0.09673189
O      -5.82280343     4.19916335    -4.16670441    -0.93643508    -0.52356008     0.72186394
O      -5.91938154     4.64327887    -8.15903196     0.44352818     0.04305420     0.84724461
O      -1.94068411     0.29733403    -4.03053891     0.00460936     0.44551919     0.00885513
O      -5.79952014     8.64829226    -7.93922209    -0.61533370    -0.19221944    -1.15578036
O      -5.90849969     0.32934581    -4.09718654     0.20425365     0.31872361     0.34577006
O      -9.71482770     8.29633491    -8.12912422    -0.30893923     0.05230709     0.42996296
