# total energy = -630.24006070 eV

CRYSTAL
PRIMVEC
        0.00279571     0.02951795    -7.98606283
       -7.83802570     0.01298533    -3.99532603
       -3.92160916     8.71933433     0.00634407
PRIMCOORD
56 1
Li     -3.95558691     2.10636503    -1.95890014    -0.05037233     0.28469677     0.17344183
Li     -3.97292497     2.36037485    -5.98748117    -0.15199953     0.01384985    -0.47294275
Li     -7.91757737     2.23943787    -9.88185149     0.55097448     0.00791153    -0.51216383
Li     -8.04524978     2.06684312    -5.73432307     1.12448058     0.40884111    -1.18013773
Li     -3.94812699     6.38333562    -1.86784083     0.52271698    -0.00879763    -0.35501602
Li     -4.06898799     6.67606431    -6.01766356     0.53384193    -0.20301349     0.99975643
Li     -7.88572845     6.63978249    -9.96905454     0.46302222    -0.42801512    -0.01545437
Li     -7.95389136     6.43973331    -5.88974704     0.48258715     0.04007988     0.46684360
Ti     -1.94582920     2.42420483    -4.01021071    -0.53495063     0.05613762    -0.47353774
Ti     -5.87281929     6.74087741    -7.92504087    -0.51330339     1.19453858     0.07812363
Ti     -7.66413548     4.45156889    -7.64003983    -0.37702420    -0.29896815    -2.47280682
Ti     -7.84056269     4.28161125    -3.69008823    -0.16554207     1.16934218    -0.58367133
Ti     -3.97401062     4.33583163    -7.81458157     1.41603157    -0.66111475    -0.06792825
Ti     -4.08659891     4.40074772    -3.77775062    -0.52097734    -0.29204482     0.02553012
Ti     -5.70692741     8.72400719    -2.28162901    -0.01675324    -0.21046056     0.54560842
Ni     -5.90420314     2.13394671    -7.98560253    -0.37024465     0.05272278    -0.03150040
Ni     -5.90643875     2.11422414    -3.97912018    -0.13629218     1.49427784    -0.99701341
Ni     -9.81353695     6.34870794    -8.09737066     0.09380661     0.82462026     0.07468456
Ni     -9.84349420     6.51437648    -3.85362146     0.93334729     0.44547773    -1.78579717
Ni     -1.95566515     2.03556926    -7.99843781    -0.84295619     1.08061480    -0.07539271
Ni     -5.91384374     6.63117978    -3.85135371     0.06196074    -0.56281796    -1.69526796
Ni     -2.06930089     0.14409784    -5.93426150     0.39300829    -0.20105209    -1.62784931
Mo     -5.90078496     0.03784735   -10.29931868     0.20039175     0.12189185    -0.33455423
Mo     -5.77003313     0.05246610    -6.34758193     0.45950645    -0.51099108     0.26975222
O      -2.03287871     1.94703006    -2.05716795     0.12646571    -0.06581363    -0.30495252
O      -2.09674779     2.01647474    -6.10964887     1.31163426    -0.94345241     1.33891356
O      -5.90607640     6.76293610    -2.02098891     0.50410198     1.16041731     0.53726657
O      -5.95644263     6.97140395    -5.92862713    -0.15339961     0.32493996     0.14208669
O      -5.88321433     2.04912392    -9.92378988    -0.39143783    -0.94640033     0.42995903
O      -6.00616010     1.90832662    -6.07225852     0.43619874     0.67168270     0.02751771
O      -9.74735370     6.73045631   -10.06689029    -0.89045830     0.81144320     0.73080929
O      -9.78875459     6.87003737    -5.78921183    -0.55943544     0.65883318     0.13438204
O      -3.83927440     2.42627787    -4.15202412     0.03288824     0.24899533     1.43055917
O      -4.11272553     2.36830041    -8.01231896     0.82912218     0.39393126     0.29201771
O      -7.87230107     2.41371008    -4.02605582     0.72877600    -2.12887659     1.14750941
O      -7.78618714     2.51976710    -7.96202012    -1.19187965    -0.64762448    -0.15935201
O      -3.92203990     6.27518264    -3.96191663    -0.45823766     0.48012576    -0.26540063
O      -3.99521941     6.49721758    -7.86841823     1.17770595    -0.63058578    -0.73175211
O      -7.76628564     6.23804524    -3.90310119    -0.97838929     0.92933170    -0.53396762
O      -7.77213279     6.38321251    -8.06423723    -1.01055395     0.04322385     1.16476846
O      -3.90247901     4.36114632    -2.00054332     0.13085595     0.15216321    -0.32057052
O      -3.95100451     4.40390081    -6.07712757     0.25130242     0.15485264     0.65662703
O      -7.71819475     4.48762711    -9.96551009    -0.10118049    -0.64119570     0.90212687
O      -7.84044565     4.44843632    -5.94517612    -0.30757183     0.34168496     1.07320546
O      -4.07649396     0.16057513    -9.93434754    -0.61518283    -0.81319779    -0.60440549
O      -4.01144155     0.24299217    -6.03349106    -1.39736987    -0.79497225    -0.84095242
O      -7.79501562     0.19133013    -6.09628986    -1.14405138    -1.09827830    -0.30053414
O      -7.67747759     0.10855542    -9.89207425     0.00334199    -0.05348401    -0.41812812
O      -9.74747442     4.44644254    -8.16388441    -0.17806522    -1.34192537     0.85856535
O      -1.92805193     3.92151558    -7.95409423    -0.68514566     0.33688287    -0.17216183
O      -5.87782016     3.96373511    -4.17428862    -0.31101164     0.32736056     0.81633304
O      -5.82340159     4.67301251    -8.00851216    -0.64705049     0.75127466     0.12566397
O      -2.12702527     0.29908825    -4.10066724     0.73427567     1.10953910     0.99430582
O      -5.94071321     8.72937621    -8.00203482     0.34630074    -0.53808920     0.18203043
O      -5.95312895     0.28138671    -4.16936616     0.15016857    -0.26535751     1.01558820
O      -9.94229180     8.21882069    -8.08320828     0.86625945    -0.54898477     0.62763234
