# total energy = -630.89609193 eV

CRYSTAL
PRIMVEC
        0.00279571     0.02951795    -7.98606283
       -7.83802570     0.01298533    -3.99532603
       -3.92160916     8.71933433     0.00634407
PRIMCOORD
56 1
Li     -3.92014691     2.17955592    -1.84538685    -0.14083541    -0.22287839    -0.19452053
Li     -3.90559770     2.21297611    -6.05510694     0.16286599    -0.25298877     0.47236828
Li     -7.93139826     2.33355552   -10.04306296     0.64238171     0.16759123     0.45392951
Li     -7.72717446     2.23315354    -5.99401027    -0.45767033     0.10054051     0.11926646
Li     -3.86435114     6.52702423    -1.87547596    -0.05294274     0.18574062    -0.65233168
Li     -3.86527811     6.59601593    -5.98987633    -0.24880641    -0.62667410     0.57674390
Li     -7.84692355     6.72351219    -9.89495825     0.05811922    -0.16858010    -0.47188796
Li     -7.77992879     6.72953797    -5.90591876    -0.18877608    -0.41795938    -0.09020762
Ti     -1.97283608     2.35675547    -3.93777369     0.58890308    -1.01160067    -0.40685503
Ti     -5.71382510     6.67615862    -8.02851454    -0.85022790     0.57551662     1.08753141
Ti     -7.80127665     4.50195598    -7.83736397     0.75784122    -0.26298872     0.55753858
Ti     -7.96158411     4.36122477    -3.77349980     0.20096655     0.53215454     0.54936101
Ti     -3.92096690     4.30356342    -7.73051799     0.77425149     0.12171460    -0.19931075
Ti     -4.04365960     4.47459696    -3.61835066    -0.37719613    -0.92473678    -1.95747728
Ti     -2.05976877     0.02601839    -2.18092448    -0.70112992     1.16985661    -0.33746271
Ni     -5.93197878     2.22900999    -7.95897675     0.09483265    -0.48221806     1.34312042
Ni     -5.87880460     2.30719774    -4.02854051     0.02012923    -0.44663254    -0.80165758
Ni     -9.79270306     6.38935598    -8.01650843     0.24639141    -1.43630551    -0.19970457
Ni     -9.83569352     6.69799584    -3.91309997     1.29139842    -0.68223102    -0.85906565
Ni     -1.87448993     2.04156640    -7.95707790    -0.78313901     0.78878750    -0.59939748
Ni     -5.93929007     6.50294570    -3.97708044     0.73634315     0.40799378    -0.33980993
Ni     -1.98903018     0.05008639    -6.00344909     0.30983235    -0.45651403     0.01331857
Mo     -9.93224855     8.75470738   -10.28759846     1.65513542    -1.50241186     1.54020465
Mo     -9.74093951     8.67590006    -6.33720750    -1.14118767     0.58490020    -0.18444426
O      -1.97291200     2.03414449    -1.94391568     0.23975227    -1.09104399    -1.09666567
O      -1.85529172     1.93937311    -6.02843893    -0.99906072    -1.24468543     0.08287539
O      -5.83654073     6.87568538    -2.00159956    -0.25814691    -0.93280287    -0.89656699
O      -5.86913382     6.86449805    -6.09031683    -0.28381861     0.91772897     1.19526032
O      -6.00785008     1.78751234    -9.72048426     0.39696164     1.35137683    -0.51442110
O      -5.86231581     1.89682969    -6.04319836     0.26913740     0.32008701    -0.27960158
O      -9.71725482     6.77994191   -10.03607100    -0.34924741     0.22951447    -0.67315528
O      -9.88174871     6.80318016    -5.80790458     1.26942059     0.15132338     0.42286422
O      -3.82732474     2.37292892    -4.09236704    -1.05552506     1.24969649     0.98472747
O      -3.99690532     2.38823323    -7.96286517    -0.78006948     0.09626538     0.35722536
O      -7.81979093     2.35284733    -4.05035150     0.75262343     0.16388533     0.47280254
O      -7.84615579     2.38527311    -7.99906392     0.13213206     0.69925451     0.08064314
O      -3.88330010     6.32826297    -3.92650077    -0.66285400    -0.19997873    -0.01125293
O      -3.84518029     6.57146439    -7.96585125    -0.14595244    -0.62832129     0.14123591
O      -7.84772373     6.31123638    -3.99681922    -0.15307950    -0.26125860     0.08186639
O      -7.82489659     6.40798376    -8.04839082    -0.39588048    -0.41861465     0.59672409
O      -3.99975260     4.44208912    -1.89055706     0.22624707    -0.04339625     0.60577909
O      -3.89945863     4.57396068    -6.01535526     0.12955624    -0.43049499     0.24999223
O      -7.96690743     4.36746938    -9.96105498     0.65211806    -0.38571709    -0.71924867
O      -7.75241787     4.29040344    -6.10182475    -0.12621674     0.16785023     0.28591177
O      -3.98750128     0.12479061    -2.07817686     0.32010471    -0.75511841    -0.22431321
O      -7.92346119     8.70629459    -5.91767909    -0.62690875     0.14633156    -0.65591450
O     -11.59245723     8.72673225    -6.17111049     0.06701089     0.38765570     0.32770386
O     -11.61598370     8.49162412    -9.90748496    -1.40465786     0.96031576    -0.39646105
O      -1.99143195     4.31693599    -3.95314052    -0.09979442     0.53800011     0.00048917
O      -1.95534063     3.96216541    -8.01587611    -0.18880960    -0.03427669    -0.06450010
O      -5.91560739     4.13436271    -4.01468266     0.12508065     0.64075877     0.20889754
O      -5.78561446     4.77464508    -7.96477780    -0.91353535    -0.33073116    -0.53865074
O      -1.94344386     0.26193612    -4.04994550     0.07219852     0.61786252     0.59370684
O      -5.96219838     8.65771179    -8.11379065     0.74716517     0.60394513     0.88650106
O      -5.94084492     0.39656822    -4.03014578    -0.07781915     0.20913487    -1.24547037
O      -9.73402698     8.15282150    -8.09293499     0.35659335     1.18744140     0.29447131
