# total energy = -631.12079449 eV

CRYSTAL
PRIMVEC
        0.00279571     0.02951795    -7.98606283
       -7.83802570     0.01298533    -3.99532603
       -3.92160916     8.71933433     0.00634407
PRIMCOORD
56 1
Li     -3.94154507     2.25056902    -1.88650897     0.04290126     0.05162663    -0.30392147
Li     -4.09284236     2.39439333    -6.15649542     0.28888428    -0.85856687     1.11099816
Li     -7.81329709     2.30594699    -9.92643243    -0.19354494     0.14060701    -0.56525857
Li     -7.92943613     2.30788115    -5.98574829     0.52311096    -0.31694381     0.17892004
Li     -3.88865704     6.38114128    -2.04441695    -0.09252752     0.08927354     0.43736890
Li     -3.92084495     6.23028950    -5.83575084     0.18552886     0.51524662     0.05064452
Li     -7.89621701     6.73886747    -9.84709118    -0.17368082    -0.48466680    -0.25144141
Li     -7.81932775     6.56377567    -5.88603572     0.16688683     0.13426701    -0.20331328
Ti     -2.02225512     2.17442707    -4.23883416    -0.13849685    -0.11177724     1.54201279
Ti     -5.68908019     6.64517476    -8.07947894    -1.49014620    -1.47825358     0.14806703
Ti     -7.82903584     4.41180352    -7.70999268     0.34353578     0.36237086     0.70357587
Ti     -7.77032006     4.39158450    -3.68994489    -0.51608939    -0.04228885    -0.18722089
Ti     -3.73341125     4.31861023    -7.70532892    -0.70102113     0.32081562    -1.67319745
Ti     -3.95232800     4.36814643    -3.72253616     0.16237620    -0.30677713    -0.26202083
Ti     -2.23146561     0.04236199    -2.03690882     1.26556493    -0.53684180    -0.51789250
Ni     -5.92451298     2.42778453    -8.00467469    -0.23729024    -0.62372815     0.31121269
Ni     -5.90977101     2.25493353    -4.00852356    -0.10145320    -0.27461780    -1.45612227
Ni     -9.78952099     6.62757612    -7.88957546    -0.19284258    -0.03142336    -1.19921279
Ni     -9.73559195     6.46629986    -4.03795544    -0.48312510     1.34159206    -0.04020228
Ni     -1.92521947     2.09360835    -7.98016452    -0.09121507    -0.22469334    -0.49361431
Ni     -5.91459521     6.64484562    -4.00262838     0.53494493    -0.43299821     0.16615145
Ni     -5.81580035     8.68195220    -5.98344642    -0.92999619    -0.39634837     0.42023745
Mo     -6.04952952     0.08544229   -10.30393427    -0.13400887    -1.79305586     0.19721303
Mo     -9.84082941     8.68587732    -6.30958362     0.67420938     0.07678335    -0.33705827
O      -1.92825944     1.85987758    -1.98194776    -0.58851877     0.87409117     0.85984560
O      -2.02200601     1.85006295    -6.07035807     0.42123175    -0.10053944    -0.80984925
O      -5.84249734     6.72501084    -2.06340867    -0.23260747     0.68229160     0.55050332
O      -5.74471711     6.85945061    -5.87188895    -0.73949522     0.14249790    -0.33779229
O      -5.93924551     1.91174211   -10.17254795     0.56343420     1.68278336     1.14723318
O      -5.83979684     1.92971592    -5.91124595    -0.57527369     0.42491017     0.52244618
O      -9.85134819     6.93646493    -9.79067911     0.64125863    -0.33398248     0.35907401
O      -9.85649561     6.67270254    -6.09677669     0.87460990     0.95226447     1.31849407
O      -3.96377935     2.28263665    -3.93888213     0.28793110     1.21156609    -0.32759526
O      -4.00556120     2.43001433    -7.98456846     0.80725178     0.27637006    -0.28258910
O      -7.84217267     2.40553965    -4.03508055    -0.11590816     0.14374039     0.79145687
O      -7.88597019     2.46809340    -8.06108016     0.42931434    -0.72236902     0.34146813
O      -3.83013569     6.34752151    -3.90014644    -0.23062566    -0.50654455    -0.56890318
O      -3.86113891     6.40411722    -7.93052161     0.61951300    -0.96992270    -0.19672268
O      -7.85911770     6.38787749    -3.93973275     0.56708093    -0.64418360    -0.02836689
O      -7.73560994     6.34342519    -7.96080989    -0.71384344     0.21766050     0.38058539
O      -3.99654572     4.32989052    -1.97594523    -0.04329475    -0.01070172     0.13992529
O      -3.97466297     4.29880016    -5.97467394     0.47244783     0.22723751     0.75790123
O      -7.99521826     4.27498980    -9.91461277     0.48965505     0.28909381    -0.94721801
O      -7.80990425     4.20599359    -5.93819906    -0.52787988     0.92703169    -1.12389701
O      -7.94530113     8.75145001    -9.93318648    -0.36820304     0.15643450     0.19595219
O      -4.06573878     0.02494634    -5.98244634    -0.08306705    -0.72549484    -0.62143477
O      -7.67926346     0.11165156    -5.99755866     0.06309995    -0.79468114     0.17707349
O     -11.69370654     8.74297518    -9.93859219    -0.46286361     0.55052066    -0.80032036
O      -1.97203034     4.09561597    -4.02503468    -1.01278774    -0.16550256     0.13274570
O      -9.77209269     4.65456376    -4.12456317     0.50433723    -0.58562164     0.56071077
O      -5.90454110     4.44825218    -4.08282370     0.54632675     0.05910922     0.57535357
O      -5.85608139     4.46737531    -7.93742207     0.23403081    -0.60429819    -0.36785181
O      -2.01491100     0.18460806    -3.95123090     0.23361454     0.21793068    -0.11609406
O      -5.65515561     8.43168750    -8.05990331    -0.75200082     1.17056055     0.09254033
O      -9.67903719     8.36271410    -4.05377738    -0.73799978    -0.13761032     0.33797002
O      -6.00210714     0.46251956    -8.07335861     0.54603088     1.13397599    -0.69670206
