# total energy = -630.44842616 eV

CRYSTAL
PRIMVEC
        0.00279571     0.02951795    -7.98606283
       -7.83802570     0.01298533    -3.99532603
       -3.92160916     8.71933433     0.00634407
PRIMCOORD
56 1
Li     -3.99483321     2.03430293    -1.86629061     0.21210622     0.35820516     0.01163782
Li     -3.93224866     2.41241428    -5.93046522    -0.38017806    -0.14581755    -0.29594139
Li     -7.89780287     2.32965841    -9.95140545     0.39766720    -0.41350553     0.10482083
Li     -7.87898517     2.41809018    -5.84294748    -0.39317788    -0.18551494    -0.12126828
Li     -3.87543391     6.42167867    -2.09036723     0.04952138     0.14209355     0.47844564
Li     -3.99884312     6.34911703    -5.94516132     0.35102479     0.21025619     0.07315308
Li     -7.94482029     6.65225644   -10.16897851     0.82000596    -0.33270725     1.14251075
Li     -7.71582864     6.39250201    -5.95426147    -0.76890083     0.03555741     0.28682169
Ti     -1.98718244     2.37339521    -4.09055429     0.54129069    -0.14996095     0.93276024
Ti     -5.82185143     6.87024955    -7.94851893     0.12052965    -0.85187921    -0.69606740
Ti     -7.71093177     4.40621611    -7.70417019     0.62853379     0.46808532    -0.50218152
Ti     -7.83146894     4.27007327    -3.63138228    -0.83857918     0.76359355    -0.12378630
Ti     -3.96202866     4.41206840    -7.76837642    -0.12506469     0.05299057    -0.13430068
Ti     -4.08819796     4.28171040    -3.71061337    -0.36014881     1.04199362     1.20536719
Ti     -5.65370818     8.67131329    -2.24130321    -0.24613905     2.65360044     2.75781518
Ni     -6.02831034     1.97111366    -7.98615515     1.70907109     0.61005501    -0.02648327
Ni     -5.97471585     2.14724258    -3.95682293     0.19590692    -0.81896875    -0.18528076
Ni     -9.83602644     6.43497733    -8.07857223    -0.29923453    -0.62084408     0.30013210
Ni     -9.77235222     6.47271983    -4.00943569     0.02690643     0.18343002    -1.05969442
Ni     -2.13566587     2.23392603    -8.00609937     1.10282945     0.02242562     0.01564696
Ni     -5.87776708     6.70199907    -4.06495459    -0.03983001    -0.60843335     0.49038861
Ni     -1.77839967     0.07759437    -5.97743457    -1.19159049     1.62060247     0.23922522
Mo     -9.80423122     8.64953577   -10.24690766    -1.59205603     0.94423956    -2.11109529
Mo     -5.74718264     0.08696008    -6.31772001     0.75656102    -0.37870042     0.52648345
O      -2.02959091     2.00846407    -1.93719086     0.13597787    -0.87781527    -0.14370909
O      -1.99465583     2.01535636    -5.99106615     0.30295516    -0.97885902    -0.05805719
O      -5.94682980     6.88689823    -1.99856834    -0.07190697    -1.63470118    -0.63919734
O      -5.89055116     6.97011355    -5.97509283     0.47231897     0.26098406     0.49833717
O      -5.89170639     1.96901806    -9.89541246    -0.58494854    -0.12644467     0.39660763
O      -5.98300744     1.96422278    -6.04659753    -0.27009276     0.12900797     0.15370579
O      -9.81376017     6.72883885   -10.13815824    -0.23164071    -0.15133067     0.80238757
O      -9.76091919     6.87426995    -5.94900273     0.07183493    -0.13464029     0.70478757
O      -3.90375281     2.35503268    -3.87285609    -0.63488277    -0.01119402    -1.01883819
O      -4.07779030     2.48710401    -7.90248276    -0.25220039    -0.63484890    -0.27331150
O      -7.96740820     2.31614715    -3.91658271     0.22211295     0.74901166    -0.06667753
O      -7.84153135     2.37401351    -7.98126953    -0.73677335     0.84457973     0.31805669
O      -4.03694766     6.22085862    -4.05165226     0.74376205     0.35747984     0.48899923
O      -3.88833977     6.51163102    -7.96935700    -0.12783895    -0.48789106    -0.13934165
O      -7.69123958     6.26271678    -3.97880742    -1.28147673     0.07224946    -0.12985530
O      -7.87991567     6.29940530    -8.09881296    -0.62366226     0.94865804     0.74527684
O      -4.00718971     4.37803067    -1.91479076     0.02756805     0.45845826    -1.50000963
O      -3.85138552     4.47303359    -6.00523423    -0.45005899    -0.64247741     0.53871485
O      -7.98952824     4.35301119    -9.84143259     0.59998952    -0.21316199    -1.26589784
O      -7.93590697     4.47577371    -5.94807902    -0.01568288    -0.64185570    -0.51105335
O      -4.16138186     0.08278540    -9.86790390     1.25364467    -0.36977299    -0.07262477
O      -3.97595484     0.24166612    -6.20052744    -0.91723236    -0.57822034     0.10698314
O      -3.90584883     8.67483961    -2.13696908     1.51597948     0.16068665     0.25521598
O      -7.62805787     0.11674201    -9.84315162    -1.18056838    -0.27445747    -0.53520218
O      -2.01753787     4.27844114    -3.99374186    -0.24622308     0.02085389     0.13156762
O      -2.01980846     4.32735462    -7.91447118     0.85636373     0.00334328    -0.68160308
O      -5.96225910     4.00082750    -4.10526376     0.21283734     0.13711249     0.58449031
O      -5.86647630     4.91068607    -7.86232004    -0.14295433    -0.93910796    -0.10571057
O      -1.93151068     0.38460876    -3.94809236    -0.68646990     0.01933315    -3.06750394
O      -5.80975470     8.70608465    -8.04363299    -0.30161554     0.32948268     0.50245971
O      -5.96051828     0.22582279    -4.14769750     0.38256444     0.06850078     0.89920292
O     -10.00798035     8.32068965    -8.04739161     1.05554636    -0.96477647    -0.14633606
