# total energy = -630.30302334 eV

CRYSTAL
PRIMVEC
        0.00285542     0.02004370    -7.95977623
       -7.82940539     0.00763210    -3.98158109
       -3.91729101     8.74642787     0.01461334
PRIMCOORD
56 1
Li     -3.83564874     2.27356416    -1.99396705    -0.10282630     0.18111024     0.01714356
Li     -3.95462891     1.84713306    -6.06119222    -0.16592762     0.60368515    -0.16343523
Li     -7.69322579     2.47069836    -9.99150224    -0.23867688    -0.07977495     0.45588590
Li     -7.75689014     2.13008659    -6.02656205    -0.11897365     0.08976318     0.47756208
Li     -3.95759046     6.45159462    -2.08207621     0.00603140    -0.06310793     0.60333031
Li     -3.97662559     6.82825707    -6.05153026     0.32770484    -0.30356863     0.81373614
Li     -7.92051961     6.49497410    -9.86105170     0.05429583    -0.14516411    -0.20007874
Li     -7.82985511     6.44913586    -5.75598270     0.13318125     0.24065285    -1.01767498
Ti     -2.03975066     2.12302535    -4.24236936     0.68206578    -0.30126950     1.67573867
Ti     -5.86192564     6.29950184    -8.00205906    -0.21800347     1.74474415    -0.52732367
Ti     -8.03806755     4.34978970    -7.65937982    -0.42551740    -0.44666581    -1.48000885
Ti     -7.68384448     4.37388362    -3.80117928    -0.80488892     2.35929471     1.45898347
Ti     -3.74836882     4.30593618    -7.62655524     0.37749287     0.88393720     0.06680634
Ti     -4.09575369     4.37194371    -3.83042530     0.71345182     0.50043745    -1.20735463
Ti     -2.16264313     0.06620577    -1.83792306    -0.72416787     0.31973137    -0.75572532
Ni     -5.82369855     2.44288444    -7.99306297    -0.59380452     0.10108355     0.36274252
Ni     -5.87193113     2.04880569    -3.99236140     0.46206374    -0.07314101    -1.24728393
Ni     -9.72316918     6.58752161    -7.80707993    -1.52437406    -0.27071317    -0.50219712
Ni     -9.72350382     6.52100220    -3.92176557    -1.44014158     0.24068933    -0.05396447
Ni     -1.76991314     2.25695278    -7.94180417    -1.30788095    -0.55514005    -0.21503450
Ni     -5.90003886     6.74696056    -4.07545482    -0.01917122     0.08207439     1.00778404
Ni     -5.92188656     8.71046802    -6.01311819     0.27765237     0.56093705    -0.34530606
Mo     -6.00135937     0.12770755   -10.18074328    -0.10128948    -0.82434438    -0.05334136
Mo     -9.86983464     8.61218357    -6.31235057     1.66663406     1.25553733    -0.05633934
O      -1.91639147     2.05104835    -1.79382962     0.35674048    -1.52044066    -0.65117202
O      -1.84564947     1.90183323    -6.04807398    -0.61722219    -0.30202887    -0.85863590
O      -6.04905123     6.75886419    -1.93488160     1.29399617     0.73678313    -0.48341717
O      -5.87699723     6.91333791    -6.05791439    -0.28401800     0.16122470     0.85289147
O      -5.83539664     2.01089296   -10.06306469    -0.40488432     1.02739692     0.09724966
O      -5.81699838     1.90220279    -5.93585769    -0.86191690     0.06713943     0.83662929
O      -9.79471458     7.02905413    -9.66636744    -0.15301950    -0.43483410     0.07634985
O      -9.78556398     6.74832492    -5.92781371     0.04711419    -0.64679912    -0.17850803
O      -3.90305181     2.29100614    -4.01094665    -0.29633244     0.07263868    -0.13726752
O      -3.94398174     2.49889593    -8.09391560     0.55955820    -0.79621875     0.86954805
O      -7.74929780     2.55043313    -4.02102655     0.24445888    -2.05788969    -0.05310194
O      -7.85103083     2.43741633    -7.88515093     0.30565384     0.14879601    -0.85595438
O      -3.95437951     6.39420512    -3.95654240     1.18586509     0.12994630    -0.24341231
O      -3.94609679     6.30188081    -7.88564332     0.70495176     0.19218027    -0.56198959
O      -7.89779021     6.41681022    -3.96660459     0.71317144    -0.01629592     0.65629670
O      -7.79405487     6.25569340    -7.84693600    -0.76771851     0.85786834    -0.49314495
O      -3.68995521     4.28348040    -2.15571341    -0.83229850     0.35398435     1.39218407
O      -3.88117548     4.22134247    -5.89667775     0.34470359    -0.12908863     0.00903770
O      -7.61378576     4.40171673    -9.91772765    -0.12961240    -0.09605450    -1.14210648
O      -7.74843904     4.45436026    -5.96315680    -0.03376799    -0.27125839     1.31941146
O      -4.07982919     0.09714900    -9.99223343     1.00686992     0.25476354     0.01989659
O      -8.02315846     8.74097227    -5.93372930     0.31853216    -0.65944096    -0.41352695
O     -11.61411573     8.64516398    -5.89993431    -0.55939771     0.39164457    -0.31683661
O      -0.03058406     0.06712197    -6.12552328     0.99568507     0.07461404     0.31341371
O      -2.04424566     4.21512998    -4.06865489     0.78492020    -0.86885475    -0.17707768
O      -9.70760329     4.65225832    -3.88118523     0.64186098    -0.09902663    -0.12887976
O      -5.88363788     4.92310006    -4.24079145    -0.26182492    -0.42338778     0.61199323
O      -5.73581117     4.45809598    -7.95223566    -0.89175585    -1.46316643    -0.06353020
O      -1.88537160     0.21591963    -3.86567545    -0.33922693    -0.04026004    -0.44923811
O      -6.03070845     8.44826747    -8.05024979     0.33826140    -0.05253494     1.39921777
O      -9.82725371     8.53913628    -3.98960886     0.11845266    -0.56412808    -0.23989963
O      -5.87270384     0.59773469    -8.05643392    -0.36815227    -0.13650239    -0.00306897
