# total energy = -630.58836909 eV

CRYSTAL
PRIMVEC
        0.00285542     0.02004370    -7.95977623
       -7.82940539     0.00763210    -3.98158109
       -3.91729101     8.74642787     0.01461334
PRIMCOORD
56 1
Li     -3.98099482     2.39980085    -1.84679119     0.41033285    -0.13807713    -0.20547742
Li     -3.77177752     2.06106136    -5.87402162    -0.53462947     0.22233151    -0.40675104
Li     -7.78452455     2.45401674    -9.89002468    -0.15374076    -0.32027781    -0.21194725
Li     -7.72349871     2.37149938    -5.87874071    -0.03077692    -0.12607066    -0.33777422
Li     -3.75125779     6.24919799    -2.01024877    -0.50661688     0.06952279     0.31726929
Li     -3.88179196     6.23396910    -5.94671541    -0.07155075     0.53102045     0.46122101
Li     -8.06147288     6.65058306   -10.11462241     0.31451457    -0.31532350     0.78187903
Li     -7.85978892     6.56801842    -5.95700573     0.25851796     0.11274875    -0.22243371
Ti     -1.87940836     2.12170971    -4.01352817    -0.43538118    -1.10080016    -0.03137979
Ti     -5.84818371     6.36579652    -8.09550971    -0.07295977     1.80167732     0.06861691
Ti     -8.00059552     4.46730777    -7.66572185    -0.32420865     0.36292013     0.92749659
Ti     -7.86173471     4.37145947    -3.73523286     0.15360212    -0.62080577    -2.29483829
Ti     -3.80233457     4.34910500    -7.70108692     1.29526183    -1.62452131     0.90743636
Ti     -3.98212304     4.27499065    -3.84066821    -0.00327898     0.21262313     0.98496938
Ti     -6.21724326     8.68822288    -1.91230407     1.30219142    -0.40200142    -0.35224556
Ni     -5.88312671     2.56613127    -7.95388832     0.70204234    -2.60900731     0.15208752
Ni     -5.84209590     2.32215422    -3.96220055    -0.04411472    -0.93088967    -0.08717362
Ni     -9.95522790     6.83478971    -7.88248144     0.35803794    -0.17955757    -0.72437401
Ni     -9.62789850     6.54657529    -4.08191298    -1.16757658     0.31270021     0.18635193
Ni     -1.89281388     1.91254207    -8.00479750     0.25474716     0.46819235     0.90152819
Ni     -5.84622038     6.41482073    -4.02316048     0.11623656     0.76346596    -0.14485482
Ni     -5.95595668     8.66454982    -5.91137662     0.83573599     1.20708638     0.35938187
Mo     -6.04892868     0.15267182   -10.24547944     0.10076476     0.17234206    -0.10515441
Mo     -5.84664755     0.10685169    -6.25602411    -0.58267160    -0.60540747    -1.14331161
O      -1.93611178     1.76913506    -1.95345111     0.07811089     0.74074080     0.64726661
O      -1.89457476     1.91033077    -5.94283590     0.08259214    -1.12603732    -0.75991881
O      -5.89658043     6.68857237    -1.98419325    -0.02624070     0.18397586    -0.16100079
O      -5.84199053     6.85591800    -5.87089849    -0.02272282    -0.12038051    -0.42270460
O      -5.86682584     2.12940267    -9.97890474    -0.17682223    -0.90557453    -0.77089707
O      -5.75319395     2.08010401    -5.93551490    -0.17646788    -0.49318557     0.75756290
O      -9.95896581     6.90501105    -9.83728811     0.92140885     0.75479996     0.47269012
O      -9.81488576     6.80180673    -6.02708519     0.52660075     0.71634638    -0.25545082
O      -3.82581326     2.23934509    -3.87359128    -1.23906509     1.09050790    -0.50163191
O      -3.75518723     2.39264105    -7.86842249    -0.48480237     0.65886755    -0.76239269
O      -7.81202178     2.31552798    -4.06099668     0.21268683     1.13246375     1.03852363
O      -7.83141046     2.52597258    -7.89110380     0.66527802    -0.32238285    -0.18417589
O      -3.97464645     6.35130342    -3.89257432     0.55311762    -0.69766087    -0.56066145
O      -3.86438268     6.24954791    -7.94981859    -0.99829941     0.73283085    -0.18915841
O      -7.71920238     6.31101736    -4.13347848    -0.44778251     0.18307148     1.67106300
O      -7.97391170     6.36130055    -7.94549280     0.88073573     0.09839694    -0.51462717
O      -3.97127607     4.30633994    -2.03356135     0.34920132     0.02740352    -0.11356480
O      -3.63124952     4.28113739    -5.90396437    -0.58895246     0.40646929    -0.99607579
O      -7.72205495     4.34486523    -9.97012874     0.09029888     0.44324059     1.49416966
O      -7.66356055     4.52052240    -5.91445851    -0.87255034    -0.91806457    -1.46287839
O      -7.98334654     8.64923115   -10.02213378    -0.05490602     0.23356765     0.36307940
O      -7.91042133     8.68940888    -5.92009852    -0.17467205     0.23038334    -0.32956049
O      -7.59004909     0.05197990    -5.95524626     0.08341102     0.03230552    -0.04727845
O      -7.74799729     0.06775587   -10.05738340    -1.39188099     0.47686389     0.03200063
O      -1.97873312     4.06741178    -3.93584024    -0.15779976     0.37478132     0.21179551
O      -9.69674756     4.72459451    -4.04791802    -0.73324676    -0.55284021    -0.04495061
O      -5.85946444     4.40273222    -4.19119207     0.31306861    -0.16938056     0.68771355
O      -5.84188104     4.45799839    -7.85527667     0.33312022     0.40057994    -0.28908035
O      -1.85556426     0.20273048    -3.97731107    -0.13841412    -0.50446720     0.32187634
O      -5.91717608     8.35326527    -7.98426365    -0.05453630    -0.26355406    -0.04421319
O      -9.73776100     8.38630859    -4.02300372     0.09181709     0.31402153     0.28655979
O      -5.91006524     0.61209748    -8.08716487     0.34599884     0.33437580     0.61832103
