# total energy = -630.61467596 eV

CRYSTAL
PRIMVEC
        0.00279571     0.02951795    -7.98606283
       -7.83802570     0.01298533    -3.99532603
       -3.92160916     8.71933433     0.00634407
PRIMCOORD
56 1
Li     -3.84948519     2.53391879    -1.94955232    -0.02124857    -0.08573113     0.55226036
Li     -3.88259457     1.98842863    -5.99777173    -0.08066361     0.36912617    -0.07316250
Li     -7.78220443     2.24486386    -9.91544759     0.00446630     0.31658969    -0.27170017
Li     -7.87667871     2.42687637    -5.87437698     0.45952882    -0.35549626     0.04848768
Li     -3.85268869     6.37859587    -2.10386262    -0.09334753     0.73936537     0.84086003
Li     -3.89102938     6.51433207    -5.93913679    -0.23881609    -0.17772657     0.32944589
Li     -7.89846650     6.59143515   -10.06210851    -0.13010546    -0.25547761     0.34007437
Li     -7.78677481     6.40410121    -5.94389330     0.05177208     0.20675857     0.07391457
Ti     -1.93441650     2.17571322    -4.08149414    -0.14256855    -0.32147515     0.80016367
Ti     -5.89987934     6.60351964    -8.04328396     0.03149381    -0.21381351    -0.12762102
Ti     -7.81542227     4.33033572    -7.76893877     0.81549990     0.57753019    -1.63278680
Ti     -7.83324626     4.31527235    -3.75666072    -1.75664828     1.04391946     0.62461934
Ti     -3.88151161     4.43104880    -7.77198696     0.51773998     0.00098698     0.01981246
Ti     -4.11155585     4.36604441    -3.87048814     0.56135022     1.45190032     1.45688612
Ti     -2.23241618     0.02765206    -1.92570027     0.37948852     1.18090845    -0.03586475
Ni     -5.86181641     2.05349696    -7.90590549     0.99508821     0.84464092    -0.41906774
Ni     -5.79512580     2.27625630    -3.97316688    -0.90523663    -0.17526695    -0.20199860
Ni     -9.83374188     6.29361063    -7.89069265     0.78037748     0.88411328    -0.73651421
Ni     -9.79644021     6.64190018    -4.02743810     0.54371395    -0.37226285     0.14695390
Ni     -1.93154822     2.15867807    -7.90241413    -0.03132139     1.04247622    -0.98811862
Ni     -5.98136335     6.83751939    -4.01214534     0.20058783    -0.20219428    -0.37085981
Ni     -5.85460630     8.72393478    -6.01433214    -0.76217749     1.30954715     0.60435407
Mo     -6.01223521     0.05653916   -10.28740313     1.20145900     0.15958828    -0.45305161
Mo     -5.80935224     0.05476058    -6.39813446    -0.76444526    -1.00464570     2.18527481
O      -1.80120784     1.94275000    -1.84101243    -1.11875600    -0.40842843     0.04485051
O      -2.01473750     1.91873010    -5.94887377     0.71889286    -0.56698427    -0.57815219
O      -6.00101771     6.84755477    -2.13931751     0.55242127    -0.45058632     1.21219110
O      -5.89766517     6.91495379    -5.91812930     0.46225003    -0.46202067    -0.28399136
O      -5.73632984     1.90687093    -9.76659150    -1.19489387    -0.02916381    -0.01710343
O      -5.75683494     1.94866084    -6.04937760    -0.88429490     0.40223697     0.11109212
O      -9.78174054     6.89914433   -10.09161547    -0.68052488    -0.23878541    -0.48961766
O      -9.57135935     6.84556938    -5.82075900    -1.23707882    -0.10088732    -0.88817023
O      -3.90456205     2.43894156    -3.85439323     0.05877053    -0.34728510    -0.70978789
O      -3.91962517     2.55949221    -7.96917846    -0.29305103    -1.91676869     0.03548811
O      -7.74498831     2.41257537    -3.91811288    -0.20117332    -1.02497992    -0.41624984
O      -7.84748453     2.30927726    -7.93883846     0.89711251     0.48534801     0.01428071
O      -3.85938875     6.39109902    -3.89771654    -0.21483551    -0.78742059    -1.33077964
O      -3.94040446     6.40033001    -8.03845054     0.05351964     0.61866857     0.30286706
O      -7.89934610     6.31616671    -4.01912560     0.32760203     0.08996068     0.58261427
O      -7.87227088     6.31851118    -8.02546092    -0.03696130    -0.66928006     0.15235885
O      -4.08328191     4.58323753    -2.04990270     0.52292662    -1.34100281    -1.27746021
O      -3.91910817     4.51409228    -6.00067236    -0.11343024     0.34627217     0.63693165
O      -8.06899604     4.25746930   -10.00058339     0.65416518     0.51123585     0.45024324
O      -7.88833215     4.43830932    -6.05216522     0.12146488    -0.51143849     0.95680231
O      -4.01975011     0.05239968    -9.93199974    -0.37910224    -0.11983740    -0.31391609
O      -3.85675032     0.06011867    -6.11421498    -1.00651863     0.05806082    -0.00178410
O     -11.50730502     8.59614791    -5.98083249     1.67550048     0.69151295    -0.52701450
O      -7.78140544     0.14187163   -10.08951539    -0.27070543    -0.36727876     0.09565982
O      -1.95987745     4.10920758    -4.06667581    -0.39565620     1.09092940     0.49614450
O      -1.97402194     4.23212545    -0.16034881    -0.17914609    -0.09918666     0.30736868
O      -5.98602600     4.26717834    -4.01036659     1.47313832    -0.68921009    -0.51938410
O      -5.87175812     4.63804550    -8.05920612    -0.41569967     0.25586956     0.20197206
O      -1.92235657     0.27749272    -3.79141858    -0.01684184    -0.05078176    -1.12595476
O      -5.91385700     8.51533094    -8.00160068     0.37904529    -0.08500264    -0.31635766
O      -5.72721191     0.38335949    -4.09418029    -0.30279324     0.05584763     1.19168982
O      -9.74579844     8.25984409    -8.11135928    -0.39314894    -0.72300224    -0.80266926
