# total energy = -631.01481461 eV

CRYSTAL
PRIMVEC
        0.00279571     0.02951795    -7.98606283
       -7.83802570     0.01298533    -3.99532603
       -3.92160916     8.71933433     0.00634407
PRIMCOORD
56 1
Li     -3.93591921     2.34029173    -1.86357661    -0.11228368    -0.53844043    -0.19177400
Li     -3.76392190     2.26015706    -5.98050780    -0.75335386     0.14914550    -0.07675728
Li     -7.77419001     2.14041228    -9.97516356    -0.06771238     0.18627822     0.23491565
Li     -7.85576761     2.33847402    -5.96592087     0.03787388    -0.17045875     0.24006244
Li     -3.81891512     6.83251065    -2.00825919    -0.63312660    -0.36184074     0.29016267
Li     -3.83227504     6.51508089    -5.86521989    -0.48416450    -0.31992747    -0.49511125
Li     -7.79189585     6.32848300    -9.85977511    -0.15921657     0.25594394    -0.13985784
Li     -8.01891195     6.65786402    -5.77244097     0.95060141    -0.20691265    -0.40262337
Ti     -1.97332066     2.24306502    -3.95721346     0.94061714    -0.43363106    -0.54414684
Ti     -5.86740381     6.67369525    -7.85686142     0.01832707    -0.34643897    -0.08933411
Ti     -7.85215126     4.45954404    -7.67426588     0.56986970     0.00507639     0.20545999
Ti     -7.92800221     4.30771128    -3.61545555     1.39913589     0.39405944    -1.01352684
Ti     -3.84291514     4.33274685    -7.79354414    -0.99646911     0.72820110     0.92714392
Ti     -4.09861765     4.47389488    -3.64048613     0.29898233    -1.19196136    -2.16079901
Ti     -6.04626456     8.71154762    -2.02936622    -0.83228473    -0.60711795     0.08184999
Ni     -5.80695848     2.23052007    -8.00453410    -0.37301430    -0.46194666     1.68374612
Ni     -5.86986947     2.33198964    -4.16003231     0.44789550     0.22262741     0.23396720
Ni     -9.82912110     6.31532510    -8.10215710     0.33092414     0.73561565     0.40466371
Ni     -9.77934643     6.49550699    -3.97474020    -0.16274648     0.00781202     0.43103734
Ni     -1.90879162     2.19478819    -7.99015036     0.03113017    -0.08602738     0.41738515
Ni     -5.87682448     6.61201461    -4.06920504    -1.05556369     0.09153078     1.18088865
Ni     -1.95681508     0.05789012    -5.98103218    -0.08791606     0.46074348    -0.28944265
Mo     -9.86185075     8.68715499   -10.37164469     0.86887409     0.03299897     0.65580744
Mo     -5.85900643     0.08415978    -6.37507484    -0.96636689     0.03915025    -1.26837598
O      -1.97615657     1.97182118    -2.03470248     0.31552639    -0.02498310     0.07789641
O      -1.93708552     1.93358966    -6.04030816     0.55018245    -0.78928806     0.35924795
O      -5.98953538     6.77833198    -2.09980806     1.13846598     0.91559161    -0.13157964
O      -5.87550648     6.91395071    -5.94536426     0.00416274     0.31862393     0.68479605
O      -5.86236539     1.76415334    -9.75467150     0.16449851     0.59864999    -0.78939929
O      -5.97172829     2.01482356    -6.09430820     0.98745424    -0.11799127    -0.31327586
O      -9.75814115     6.74338621   -10.10323569    -0.01488289     0.09367367    -0.30592654
O      -9.80385661     6.94811032    -5.78271941    -0.27650888    -0.61515295    -0.18878102
O      -3.81000750     2.48720696    -3.99555026    -0.90139992    -0.36482146    -0.19577775
O      -3.89867378     2.37042854    -7.91750784    -0.48427802     0.12538933    -0.44735027
O      -7.75127794     2.36575505    -3.98309670    -0.80723637     0.15368147     0.06477176
O      -7.69950382     2.47819652    -7.93946028    -1.21005332    -0.06640340    -0.29765172
O      -4.01414993     6.29855502    -3.97916997     0.89479158     0.96796913     0.04177315
O      -3.94269881     6.28999684    -7.93019182     1.22845288     1.22420702    -0.62599107
O      -7.79870054     6.28742625    -3.87821873    -0.53200582    -0.13190840    -0.50109640
O      -7.83623846     6.40861893    -7.84986577    -1.39974201    -0.12936011    -0.46602192
O      -4.04637678     4.25776405    -1.94761318     0.20464088    -0.03571460     1.98555154
O      -4.00563205     4.40499404    -6.05042287    -0.04567902    -0.34846280     0.18294422
O      -7.84755500     4.28263335    -9.85961556    -0.05330329     0.24619220     0.15300965
O      -7.92892414     4.31767676    -5.92531785     0.02343125     0.20996820    -0.29345977
O      -3.97822826     0.05901126    -9.82609939     0.86831999    -0.19389283    -1.29214852
O      -4.08904225     0.05847777    -6.02098526     0.33578269     0.25803754    -0.17635309
O      -7.70602429     0.02473148    -5.94750290     0.14709203     0.30680525    -0.44002944
O     -11.61475491     8.72017071   -10.21636515    -0.34937723    -0.32126399     0.14780712
O      -2.04104276     4.38639580    -4.04925881     0.38623368    -0.24050278     0.41436003
O      -1.93217880     4.25141301    -7.88938025    -0.79936133    -0.21302396    -0.63361459
O      -5.94385971     4.17047141    -4.02483674     0.01823352    -0.03725362    -0.04927120
O      -5.97885828     4.85672564    -8.04073922     0.96999004    -2.21342194     0.27404297
O      -1.81052705     0.25113273    -4.04579128    -0.64005707     1.13659126     0.57522265
O      -5.93886333     8.55719624    -7.97430393     0.45298252     1.03375794    -0.43339420
O      -5.73042429     0.50299647    -4.12756276    -0.12174086    -0.56663325     0.67966965
O      -9.85062313     8.18573379    -8.19107512    -0.20403089    -0.05663167     1.68661428
