# total energy = -630.06116738 eV

CRYSTAL
PRIMVEC
        0.00285542     0.02004370    -7.95977623
       -7.82940539     0.00763210    -3.98158109
       -3.91729101     8.74642787     0.01461334
PRIMCOORD
56 1
Li     -3.96298130     2.43832977    -1.99673719     0.07917214    -0.34526322     0.03783771
Li     -3.89306558     2.17199710    -5.94394172    -0.15157852    -0.17593160    -0.08689449
Li     -7.74628765     2.51486958    -9.95899242    -0.26737330    -0.61354792     0.09408942
Li     -7.76108092     2.20613633    -5.94539968    -0.07777134    -0.01185393    -0.00013965
Li     -3.92253003     6.42037526    -2.06128301     0.02567255     0.24147298     0.48881203
Li     -3.88129041     6.41697077    -5.86302067    -0.11976230     0.12612414    -0.33583250
Li     -7.85181025     6.29447639   -10.00300640    -0.08433215     0.54195589     0.35363431
Li     -7.78968386     6.38132270    -5.90838424    -0.11308624     0.48922660    -0.04508938
Ti     -1.94137199     2.22843189    -4.01694991    -0.03979002    -0.07094307     1.46904314
Ti     -5.81158137     6.70506540    -7.91495779     0.27798501    -0.50426704    -0.80419272
Ti     -7.79293047     4.41992465    -7.72968734    -0.24573459    -0.46899266     0.06931209
Ti     -7.78203891     4.34738280    -3.79161373     0.08399422     0.04774432     0.63265048
Ti     -3.84653117     4.29107270    -7.73186344     0.30052692     0.75732751     0.74549607
Ti     -3.95687677     4.46158553    -3.78645688     0.30225599    -0.68335218     0.18787637
Ti     -6.10340620     8.72890484    -2.03803080    -0.96913827    -0.38132335    -0.62899137
Ni     -5.85143423     2.38553233    -8.08787183    -0.50676459    -1.41912083     1.39474772
Ni     -5.85131048     2.19638794    -4.08400577     0.08717958     2.80365862     1.46509831
Ni     -9.81014791     6.63035038    -7.91524500     0.77336932     0.02039485     0.94826052
Ni     -9.78879181     6.42755339    -3.98201671    -0.22962494    -0.22066534     0.61442398
Ni     -2.01121744     2.19492725    -7.92049842     1.37469503    -0.07995740    -0.10920731
Ni     -5.81850267     6.54211327    -3.98640048    -0.63514675     0.88340596     0.15586384
Ni     -1.98975074     0.03715334    -5.97186029     0.22837476    -0.99173888     0.68212167
Mo     -6.03458378     0.03357708   -10.19967040     0.78905879    -0.08858242     0.22343063
Mo     -9.78299936     8.66816663    -6.23748135     1.31088097     0.83363600    -1.24332404
O      -1.91608963     1.85686074    -1.88988404    -0.29842055     0.18074100     0.10271548
O      -1.90299522     1.79913580    -5.82656320    -0.40797550     1.54053318    -2.32884291
O      -5.91337978     6.73351380    -2.04475501     0.33855144     0.62333139     0.34892024
O      -5.83663094     6.99345346    -5.97800896    -0.11166784    -1.97367087     0.87162528
O      -5.88946900     2.06479597   -10.01550677     0.10521959    -0.50248020    -0.44664852
O      -5.76799075     1.98674327    -5.91855083    -0.68017931    -0.28464767    -1.31111383
O      -9.84291520     6.91024870    -9.75287930     0.36962918    -0.04715482    -0.97717304
O      -9.73501257     6.79633653    -5.81296743    -0.19397697     0.08142188    -1.53283220
O      -3.89398493     2.35234432    -3.99574257    -0.14937313     0.89472293     0.10481480
O      -3.88946597     2.37749569    -7.96518441    -0.09043612     0.68428359    -0.15590537
O      -7.79389105     2.35454445    -4.02077790    -0.85187931     0.92081650     0.27207495
O      -7.83309447     2.37550287    -7.95031788     0.64898795     1.15539268    -0.12083106
O      -3.83257146     6.45982395    -3.98840740    -0.56311589    -1.09425240     0.32369438
O      -3.86963187     6.38608937    -8.07377830    -0.88092965    -0.69824021     1.17961941
O      -7.93663305     6.35483171    -4.04236121     1.19430869    -0.89763036     0.85567343
O      -7.78682194     6.38629481    -7.99559446    -0.04502019    -0.90036561     0.57982948
O      -3.90392686     4.44243874    -2.01803750    -0.19261908     0.02566024     0.39927917
O      -3.93844670     4.43288598    -5.94209792     0.04648763     0.23572997    -0.07747461
O      -7.87476632     4.37729522    -9.91976173    -0.34403526     0.19222381    -0.52206692
O      -7.89192552     4.39600867    -5.96968666     0.22838009     0.17887717     0.48465143
O      -7.98917034     8.72004257    -2.09758611     0.71674140     0.05963939     0.07666447
O      -7.88195581     8.71558955    -6.22689186    -0.67617147     0.21580381     1.06004307
O     -11.54683124     8.69976888    -6.21119674    -0.88438635    -0.13156954     1.05571223
O     -11.70510439     8.72803073   -10.09262884    -0.40659529     0.21206952     0.43960029
O      -1.97101414     4.11392657    -3.68899996     0.08174934    -0.00642507    -1.54361709
O      -9.77458353     4.41324420   -11.74890167    -0.19204460    -0.13451316    -1.03638608
O      -5.88458204     4.19819206    -3.73703802     0.40005909    -0.20233343    -1.55178135
O      -5.84495015     4.23609575    -7.78780320    -0.26086887     0.99413154    -0.93447165
O      -1.89705748     0.26318505    -3.86586527    -0.37694620    -0.55504882    -0.58754481
O      -5.88808758     8.47752042    -7.90014871     0.23862467     1.24941106    -1.63748831
O      -5.98752977     0.47114469    -4.08432242     0.55055049    -2.87685640     0.01917537
O      -5.94755822     0.50907257    -8.12234777     0.51713207     0.43406957     0.16329696
