# total energy = -630.65532818 eV

CRYSTAL
PRIMVEC
        0.00279571     0.02951795    -7.98606283
       -7.83802570     0.01298533    -3.99532603
       -3.92160916     8.71933433     0.00634407
PRIMCOORD
56 1
Li     -3.98833226     2.35577958    -1.94871294    -0.00083156     0.16781451    -0.36674030
Li     -3.79001137     2.18539341    -6.02855007    -0.71526071    -0.12371244     0.42983491
Li     -7.96399649     2.32619623    -9.96760948     0.83171267     0.14339917    -0.32420641
Li     -7.82010648     2.09777933    -5.99387253     0.47095437     0.00507242     0.27736760
Li     -3.96682771     6.57641466    -2.00245477     0.14748068    -0.22007375    -0.03109535
Li     -3.88428725     6.48641139    -5.89580289    -0.26095378     0.27244277     0.33993932
Li     -7.82156798     6.28321780    -9.80977893    -0.46934697    -0.13409142    -0.95739555
Li     -7.95620832     6.29144903    -5.88936660     0.21637557     0.42826510    -0.06485403
Ti     -1.97414492     2.20452274    -3.95094180    -0.48863496     0.76149003    -0.90171276
Ti     -5.85536539     6.70575911    -8.03458748    -0.98310609     0.12331581     0.90910373
Ti     -7.74315556     4.30102503    -7.77324412    -0.87813076     0.64339225     0.56143660
Ti     -7.84400082     4.35485768    -3.83667131     0.35311996    -0.27753845     1.26604467
Ti     -3.76676185     4.39203817    -7.60544337    -0.22292140     1.00867790    -0.72184531
Ti     -3.96193239     4.40493043    -3.81381396    -0.22288251     0.22149847     0.41582253
Ti     -2.24766496     0.02559848    -2.05298982     0.78823856     0.19104366    -0.05262724
Ni     -5.67525796     2.32500967    -8.06413285    -2.87816769     1.97311112     0.06942780
Ni     -5.94517112     2.22507067    -4.08820076     0.57330791    -0.01135286    -0.88156805
Ni     -9.79026171     6.48943652    -7.82701917    -0.36501713     0.05700426    -1.21762298
Ni     -9.82976909     6.72958295    -3.93182544     0.57495909    -1.58164818    -0.41240108
Ni     -1.97457110     2.14288031    -7.89352797     0.63008811    -0.24500414    -0.98523892
Ni     -6.01081813     6.59610638    -3.98291809     1.37914463     0.07052040    -0.36540658
Ni     -5.95798946     8.64549964    -5.87493571     0.17938121     0.82220925    -1.05149731
Mo     -9.87174111     8.74399949   -10.26480617    -2.07012659     0.86756271     0.01935521
Mo     -9.77738947     8.61756487    -6.45134102    -0.77599930     0.68294050     1.93445836
O      -1.88684566     1.94717130    -1.98891309    -0.49703421    -0.29121250     0.12213482
O      -1.91496806     1.82400965    -6.03761524    -0.76205714    -0.65777503     0.80481770
O      -5.91884814     6.80068843    -1.99247759    -0.05850024     0.02035809    -0.38156372
O      -6.04328551     6.81372454    -5.90972636     0.74393744     0.20495374     0.52308426
O      -6.01802256     2.09592487   -10.23152011     1.14521356    -1.33116379     1.11461046
O      -5.74003713     2.00614337    -5.97816873    -0.77184086    -0.67344298    -0.09458330
O      -9.78972741     6.96264414    -9.62826527     0.31503898    -0.20640452    -0.61418879
O      -9.88183976     6.72783063    -6.03226867     0.64650934    -0.00192294     0.72107537
O      -3.93646008     2.32137051    -3.96178542     0.85129998     0.33498475     0.01963663
O      -3.85372950     2.54448574    -8.04325124     0.75463311    -0.89092505     0.37882377
O      -7.91829271     2.39747459    -3.94716964    -0.15057503     0.01654256    -0.82382163
O      -7.76444787     2.45853063    -8.08482870    -0.08918038    -1.27239537     0.81762364
O      -3.98965474     6.38772652    -3.97697311     0.43111008    -0.72800927    -0.01396920
O      -3.98889291     6.39107195    -7.91364200     0.58658496    -0.09982681     0.22461767
O      -7.82032402     6.34441422    -3.92449505    -0.86531382     0.40734644     0.01506820
O      -7.76165402     6.28742781    -7.99889909    -1.04530008     0.35229677     0.66706928
O      -3.82598775     4.39258994    -2.06057052    -0.04248852    -0.16025285    -0.00178359
O      -3.70893352     4.23568903    -5.86174538    -0.69059314     0.47800481    -0.87252763
O      -7.72536060     4.37309976   -10.02029801    -0.48344461     0.29667584    -0.78702267
O      -8.06852982     4.43730671    -6.01628858     0.34688935    -0.44854256     0.05631511
O      -4.05918205     0.18972709    -9.91150640     0.68514723     0.03685229    -0.42177449
O      -8.01195614     8.66359772    -6.07166342     0.64533562    -0.01330494    -0.35326596
O     -11.57592618     8.71874709    -6.00186836     0.44876887     0.12709285    -0.22779173
O      -7.74532499     0.03630745   -10.23074778     0.21418307    -0.36347992     0.48308079
O      -1.90317687     4.12052853    -4.18612546    -0.59352324    -0.56743959     0.78943248
O      -9.77610997     4.76010798   -11.81547090    -0.27318745     0.69722925    -0.63515963
O      -5.88639703     4.18447497    -4.18333324    -0.16156107     0.04084874     0.26318873
O      -5.90338347     4.40005917    -7.97166417     2.67381998    -0.31506644     0.17411890
O      -1.90321008     0.20292422    -3.93479883    -0.35519354     0.11627038     0.12913363
O      -5.99016737     8.54314745    -8.06059394     0.42966562    -0.53690511     0.20127913
O      -9.68317298     8.60855064    -4.13657998    -0.23200287     0.33908496     1.10424381
O      -5.93904758     0.58784293    -8.14819939     0.37086384    -0.83175790    -1.38528483
