# total energy = -630.80950585 eV

CRYSTAL
PRIMVEC
        0.00279571     0.02951795    -7.98606283
       -7.83802570     0.01298533    -3.99532603
       -3.92160916     8.71933433     0.00634407
PRIMCOORD
56 1
Li     -3.96083176     2.25600718    -2.01482363    -0.27561309    -0.07898396     0.22321727
Li     -3.94552261     2.01285316    -6.14473052     0.40492252     0.46517628     0.43708368
Li     -7.92002874     2.35569547   -10.06815838     0.48376272    -0.07185212     0.52410982
Li     -7.94783804     2.27425245    -5.86161909     0.67479269    -0.01509063    -0.25306560
Li     -3.87140566     6.47921332    -1.75476951     0.12510377    -0.06487152    -0.66866757
Li     -4.06916983     6.18455522    -5.89482652     0.11716728     0.23383960     0.14094990
Li     -7.94144740     6.47196832    -9.91582573     0.35885249    -0.26112637    -0.04571005
Li     -7.88309876     6.69672426    -6.04768149    -0.11139712    -0.21866101     0.90841098
Ti     -1.91519873     2.18122266    -3.95030996    -0.42511535    -0.05863598    -1.43181157
Ti     -5.79655938     6.70263642    -7.87932159    -1.73558549    -0.32235809    -0.05598188
Ti     -7.77805365     4.35035229    -7.72059377     0.93394949     0.15959788     0.18482390
Ti     -7.87772476     4.36454827    -3.75422163     0.48526514     1.21180367    -0.51503246
Ti     -3.80297577     4.35212694    -7.78859574     0.98970355    -1.20223306    -2.02525127
Ti     -3.85423740     4.37751772    -3.78185083    -1.47969376    -0.57437727     0.35538654
Ti     -2.17140817     0.01038714    -2.19092079    -1.02760929    -1.30469928     0.15712860
Ni     -5.83312351     2.35357249    -8.13020324     0.61982552     0.91487204    -0.23786629
Ni     -5.95872183     2.16156947    -4.12978028     0.61143298     0.43933286     1.77845866
Ni     -9.89128514     6.50078977    -7.79579247     1.10330675     0.46274364    -0.27170168
Ni     -9.84383736     6.60615477    -3.91763111     1.39380275     0.34995588    -0.52616790
Ni     -1.83891171     2.01186287    -7.99747196    -1.40230959     0.13225741     0.36448340
Ni     -5.82860198     6.57721392    -3.89830064    -1.05073152    -0.59955541    -0.48168469
Ni     -5.91076389     8.68705689    -6.02815465    -0.11444476     0.20850908     0.03049565
Mo     -9.97422194     8.72687007   -10.17143346    -1.05455635     1.58803857    -0.11147600
Mo     -5.90412650     0.09033166    -6.37951098     0.04731190    -1.23352901    -0.53545625
O      -2.00902458     1.89713275    -1.97603822     1.01451151     0.79358940    -0.52624605
O      -1.89812883     1.83375637    -6.13276961    -0.70692216    -0.35758809     0.37961965
O      -5.71790037     6.85134586    -1.97613454    -0.80684385    -0.50729256    -0.50438286
O      -6.01719660     6.78183367    -5.90183296     1.08187267     0.48622661    -0.71150746
O      -5.98599067     2.01438236   -10.18338295     0.85813420    -0.19606335     0.01998089
O      -5.94368121     1.95825284    -5.94311360     0.77539304     0.17997732    -0.05501963
O      -9.76618580     6.99075393    -9.62126749    -0.41881549    -0.82548799     0.03812276
O      -9.80214927     6.85778055    -5.93567913    -0.63100675     0.22202214    -0.38014161
O      -3.93889290     2.35261514    -4.02043895     0.64480380     0.77620749    -0.14259530
O      -3.80005681     2.42870926    -8.02213733    -0.16360102    -0.32789545    -0.36597434
O      -7.84632151     2.36761407    -3.94830164    -0.05965556     0.24841105    -0.74673788
O      -7.77007869     2.42813851    -8.04694110    -0.87638121    -0.67859298     0.23312698
O      -3.88602005     6.34809465    -4.06527999    -0.13329692    -0.59621825     0.78310860
O      -3.98980273     6.38074098    -7.78922104     1.07770254     0.20086173    -0.46380110
O      -7.84906317     6.43897106    -3.96668760     0.10262183    -0.57089780     0.51991777
O      -7.85177494     6.23033761    -7.97029290     0.23192923     0.98187948     0.34454623
O      -3.82669208     4.33570301    -2.01898600     0.09988701     0.31581448    -0.84039788
O      -3.88840636     4.23609231    -6.10476618     0.13600347     0.37919977     3.51251847
O      -7.89217441     4.36978398    -9.98769094    -0.11617477    -0.02070143     0.31082113
O      -7.84836738     4.23333408    -5.96325555    -0.11349059     0.07126343    -0.64404969
O      -4.01919478     0.14933194    -2.02544241     0.76992787    -0.73205049    -0.35275876
O      -7.94524819     8.70237510    -6.10231407    -0.52049546     0.36473414    -0.17413825
O      -7.69756123     0.11135755    -6.13735221    -0.07231942    -0.51642070    -0.04318422
O      -7.84075225     0.13280056    -9.97149441     0.76345084    -0.90470372    -0.10325575
O      -1.88025509     4.11544470    -4.12077476    -1.08667794    -0.33185541     0.49902393
O      -9.74854813     4.80895615    -4.08617698    -0.54817455    -0.45570185     0.21944032
O      -5.93310504     4.52220230    -3.95844061     1.31867124     0.11644685    -0.33909458
O      -5.71260469     4.31632089    -8.04590454    -2.23935424     0.07492911    -0.18246807
O      -2.01272709     0.21740988    -4.09609617     0.14103599     0.43541363     1.36072954
O      -5.80146173     8.46911918    -8.11024072    -0.22761923     0.76270381     0.39995087
O      -9.93400909     8.51713895    -3.98335645     0.37964047     0.13451324    -0.71647326
O      -5.78405445     0.56977056    -8.18408206    -0.38557795    -0.38754529     0.62283887
