# total energy = -630.65033451 eV

CRYSTAL
PRIMVEC
        0.00279571     0.02951795    -7.98606283
       -7.83802570     0.01298533    -3.99532603
       -3.92160916     8.71933433     0.00634407
PRIMCOORD
56 1
Li     -3.85601198     2.13997206    -1.96319855    -0.44614330     0.41441414     0.12617444
Li     -4.13302163     2.41779174    -5.95855900     0.98221866     0.23057748    -0.10216204
Li     -7.92977830     2.28548193    -9.94139979     0.54814256    -0.15739885    -0.48450305
Li     -7.90907446     2.39413672    -6.07587398     0.37253830    -0.20184301     0.83644580
Li     -3.90673315     6.61398961    -1.93614421    -0.61276413    -0.34328821     0.01678680
Li     -3.86407952     6.67716748    -5.98535217    -0.27250505    -0.28289801     0.22773428
Li     -7.84475358     6.47491916    -9.91577363    -0.34733376     0.05829320    -0.47945355
Li     -7.99937674     6.28226959    -6.00744335    -0.36100696     0.79335888     0.78232869
Ti     -2.00675650     2.19971060    -4.04268193    -1.07684897    -0.17546020     0.02534080
Ti     -5.99034187     6.60465883    -7.77199944     1.35273950     0.81062337    -1.07759925
Ti     -7.75570300     4.35475646    -7.83931175    -0.52880274    -0.21241929     0.75819402
Ti     -7.88393439     4.32415737    -3.78298247     1.53672686     0.50469247    -0.26226129
Ti     -3.69847393     4.38798668    -7.79438545    -1.12540926     0.81925075     1.38051513
Ti     -3.98340973     4.52425436    -3.75694485    -0.38394137    -1.25566943    -0.54871220
Ti     -5.75828764     8.65690280    -2.08423098     0.51077970     0.15365657     0.03403222
Ni     -5.89175348     2.13691845    -7.93256794    -0.52398759     0.31141727     0.12131449
Ni     -5.90421998     2.30015279    -4.11642142     0.50402608    -0.44403613     1.32094553
Ni     -9.84183930     6.30856571    -8.09947683    -0.18906468     0.00533571    -0.30893269
Ni     -9.85309161     6.78346953    -3.97189913    -0.17727237    -0.43631398    -0.53020938
Ni     -1.96448261     2.04148186    -8.00193138     0.12253855     0.51281510     0.07105766
Ni     -6.05786881     6.62183719    -3.95534381     0.56686388    -0.00343625    -0.08931654
Ni     -1.87087972     0.04330053    -5.97583916    -0.57120480    -0.51252644     0.21914968
Mo     -5.86621384     0.13982283   -10.19492020     0.51232211    -0.04281417    -0.82841813
Mo     -9.72900521     8.71784694    -6.33792278    -2.01658844    -0.08909742    -0.38085894
O      -1.86794069     1.92046486    -2.12697792    -1.01592645     0.03613167     0.70028021
O      -2.03865462     1.86273726    -6.07134516     0.55415993    -0.07611230     0.87619243
O      -5.92164780     6.73663427    -2.00899792    -0.20956093     0.93550909     0.12716158
O      -5.92390079     6.86566645    -5.88369977    -0.45378598     0.53151596    -0.58457427
O      -5.93064532     2.04799720    -9.81820814     0.33118732    -0.58874075     0.31559324
O      -5.92189786     1.95509086    -5.96189522    -0.56650495    -0.40268845    -1.78477984
O      -9.83990016     6.84907523   -10.13627961     0.61362689    -0.19943840     0.64425568
O      -9.94317581     6.77953293    -5.86533090     1.25227356     0.93505969     0.32110992
O      -3.89910063     2.41682737    -3.97110752     0.21063905    -0.23765052    -0.30629122
O      -4.11929739     2.46522507    -7.97359576     0.87861976    -0.21892175     0.18492926
O      -7.76427879     2.36957286    -4.06805244    -0.49212961     0.25017116    -0.01599119
O      -7.86261110     2.39615110    -7.99630083     0.21545800     0.48664997    -0.00914408
O      -4.04901869     6.35126882    -4.10191816     0.37504515     0.71304961     0.78504052
O      -3.94115011     6.39363704    -7.92192150    -0.32276031     0.13754435    -0.21566485
O      -7.97055987     6.39476885    -3.88746472     0.69756446    -0.89099454    -0.64762801
O      -7.93811780     6.31011065    -8.04084509     0.73223364     0.02658919     0.54270785
O      -3.99019187     4.37024839    -2.02685475     0.29999858     0.19107760     1.53984433
O      -3.81194649     4.43736483    -5.97985893    -0.50599479    -0.59484339    -2.17153193
O      -7.82445738     4.26222422   -10.02141281    -0.32431374     0.65160655     1.03317052
O      -7.99694974     4.50991032    -6.05124886     0.51189714    -1.23346031    -1.09817702
O      -4.03660129     0.13861424    -9.91762364     0.95609791    -0.19192126    -0.33413429
O      -4.15856067     0.04689116    -5.94777732     1.80901077    -0.15634399     0.28049239
O     -11.71311822     8.71017370    -6.03277127    -0.18337117    -0.06116917    -0.06771331
O      -7.62529813     0.07648242    -9.92779123    -1.46443399    -0.08508362     0.46433592
O      -2.05658816     4.36287665    -4.11629033     1.34736728    -0.57157134     0.25719823
O      -1.89138072     4.00963994    -8.02572299    -0.62850556    -0.92710843    -0.25443730
O      -5.85670510     4.12981200    -4.04053908    -1.49510800     0.54828051    -0.62046807
O      -5.90023281     4.76902062    -7.93872924     0.14254292    -0.47139898     0.10350852
O      -1.84801647     0.18587823    -3.98238863    -0.72585046     0.86331725    -0.74009940
O      -1.97210628     0.05708151    -7.92876160    -0.05691150    -0.92991833    -0.35255847
O      -5.95988035     0.33054625    -4.01704181     0.31618077     0.07881947    -0.28245998
O      -9.62508971     8.10576967    -8.07460825    -0.93721794     0.79092751     0.59181317
