# total energy = -630.19587476 eV

CRYSTAL
PRIMVEC
        0.00285542     0.02004370    -7.95977623
       -7.82940539     0.00763210    -3.98158109
       -3.91729101     8.74642787     0.01461334
PRIMCOORD
56 1
Li     -3.90243051     2.35011312    -1.86787437    -0.19644530    -0.06254701    -0.47408169
Li     -4.00913861     2.50920445    -5.87032136     0.03312997    -0.30333567    -0.43577543
Li     -7.76105398     2.04505563    -9.92284269    -0.03068500     0.16644338    -0.02296798
Li     -7.79051550     2.32243605    -6.03210405    -0.10601574     0.28400788     0.34442249
Li     -3.93502221     6.78633709    -2.10159091     0.52366481    -0.63205916     0.11484878
Li     -3.84805481     6.45128443    -5.90046511    -0.54177518     0.11071522     0.01717673
Li     -8.03178861     6.58970042    -9.68567138     0.82132166     0.14778021    -2.09723299
Li     -7.94940966     6.48810327    -5.97090831     0.57659567    -0.40826857     0.33347323
Ti     -2.12106422     1.95258164    -4.08994742     0.58769617     1.86560418     0.27304938
Ti     -5.90070037     6.43900272    -8.07902150     0.67960543     0.50680708    -0.24065527
Ti     -7.97773266     4.33605621    -7.82241572    -0.87945646    -1.64038015     0.83666197
Ti     -7.89076394     4.38431268    -3.72812982     0.82590596     0.05088962     0.18124075
Ti     -3.82863311     4.32808185    -7.75219580     0.22950208     1.28206695    -0.01263413
Ti     -3.92201149     4.44795983    -3.76958140    -0.40162063    -0.58908139    -0.23502677
Ti     -1.78040305     0.12634926    -1.82701485    -0.15062585    -2.09082775     0.15918224
Ni     -5.82014175     2.43363964    -7.97685673    -0.86197029    -0.98934739    -0.80379155
Ni     -5.91309038     2.30330703    -4.04759360     0.08247881    -0.31975883     0.50103747
Ni     -9.73538925     6.58288838    -7.92080093    -1.05721709     0.10909991     0.94476556
Ni     -9.83989213     6.51153867    -4.00955943    -0.08126301     0.21572122     0.18912833
Ni     -2.02578854     2.12084726    -7.94107185     1.02134029     0.24131447     0.62168895
Ni     -6.03670568     6.66523449    -4.04939224     0.49629660    -0.20643950     0.87741256
Ni     -2.05634872     0.02599143    -5.95827530     1.26914098    -2.33650641     0.18668808
Mo     -9.83603393     8.73453880   -10.11704092     1.06986283     1.01029666    -0.40207819
Mo     -9.64782850     8.75711325    -6.25606710    -0.62659823    -0.51159920    -0.41615843
O      -1.99544503     1.95198328    -1.89240395     0.21457571     0.15184753    -0.12970207
O      -1.89590802     1.86215392    -5.97350886    -1.20341717    -0.07470785    -1.22752928
O      -5.74794823     6.85079127    -2.03638072    -1.51518987    -0.14114063     0.60716171
O      -5.89035431     6.83160654    -5.85927962    -0.41386061     1.01724577    -0.56027817
O      -5.74503489     2.07916839   -10.08631942    -1.32741243    -0.72330161     0.55534816
O      -5.89185543     2.15041816    -5.97013901     0.04755671    -1.71350257     0.20683495
O      -9.80801480     6.86473697    -9.82371466    -0.43597058    -0.72760276     0.01242297
O      -9.84107933     6.79585373    -5.94829667     0.49443418     1.12941984    -1.09015436
O      -3.97344838     2.20078474    -3.99349767    -0.05052648     0.65278134    -0.29686810
O      -3.89422876     2.44501336    -7.89627239     0.01705200    -0.30655574    -0.05325939
O      -7.93302973     2.39843587    -3.88287841     0.25368445     0.67030964    -0.58840296
O      -7.89817122     2.41625450    -8.02705389     1.21832107    -0.08837647     0.37572475
O      -3.78496368     6.29806219    -3.99385368    -0.21070912     0.97513666     0.18813609
O      -3.94571988     6.34716392    -7.97483015    -0.68665775    -0.08012986     0.19744881
O      -7.97919606     6.39717194    -4.00377708     0.99944185    -0.17083968     0.10706868
O      -7.86002285     6.29814099    -7.98382911     0.50261494     1.12168461     1.04240754
O      -3.80115003     4.31357056    -2.04916660    -0.26690242    -0.20383327     1.22371728
O      -3.77000893     4.35689964    -5.97899171    -0.15007690     0.24923776    -0.53119722
O      -7.74264925     4.62793767    -9.92236625    -0.40323779    -0.34695355    -0.54138763
O      -7.87446151     4.48691055    -6.04379521     0.15557837    -0.30064278    -0.48331051
O      -7.97781787     8.64915772    -9.98750702     0.07670005     0.18141788     0.20425563
O      -7.89701126     8.67479669    -5.86826379    -1.11673867     0.31043338    -0.50325995
O     -11.61304485     8.68355278    -6.05215686    -0.05005052     1.15696283     0.32796156
O     -11.67371091     8.72401382    -9.81118103     1.03656917     0.33729939    -0.60438672
O      -2.04673900     3.93946541    -4.04748370     0.56316071     0.60851087    -0.06593944
O      -9.76896492     4.65384948    -4.16070609    -0.35626578    -0.27020646     0.73352247
O      -5.86082628     4.25927982    -4.04304359    -0.71480300    -0.27949481    -0.12041879
O      -5.89467795     4.34442505    -7.98168520     0.74423904     1.24361805    -0.04169893
O      -1.84577789     0.14572631    -3.91406580    -0.58435767    -0.66860041     0.77078065
O      -6.00153578     8.41401546    -7.87751713     0.57452526    -0.30289799    -1.23616590
O      -5.94554705     0.17651389    -4.00755370    -0.24807029     0.39112436    -0.20897678
O      -5.65742346     0.59822914    -8.06421562    -0.63290428     0.05271050     1.10544440
