# total energy = -630.45323612 eV

CRYSTAL
PRIMVEC
        0.00285542     0.02004370    -7.95977623
       -7.82940539     0.00763210    -3.98158109
       -3.91729101     8.74642787     0.01461334
PRIMCOORD
56 1
Li     -3.92589974     2.03781466    -1.93023267    -0.43107922     0.47924072    -0.19765356
Li     -4.07128795     2.22823203    -6.03550187     1.03518411    -0.01156719     0.26625087
Li     -7.95948352     2.39035132    -9.99338413     0.46350260    -0.05516595     0.00081763
Li     -7.84390304     2.13728781    -5.84711901     0.22343970    -0.16376746    -0.66310536
Li     -3.92508907     6.32315423    -1.97424366     0.05686560     0.73868015     0.55583847
Li     -3.84817811     6.32369592    -5.77183285    -0.33585658    -0.05178804    -0.46928723
Li     -7.72495672     6.62671918    -9.75801264    -1.43341874    -0.26451014    -0.46977768
Li     -7.79775835     6.56094377    -5.82382888    -0.18578692    -0.01065909     0.00186955
Ti     -1.99324258     2.20989028    -4.01909024    -0.93143334     0.30365038    -0.99520576
Ti     -5.83023415     6.57290453    -7.95666804     0.57543068    -0.17660376     0.31770243
Ti     -7.84476458     4.36928917    -7.64798729     0.06323123     0.03623197     0.49725639
Ti     -7.68891722     4.43090194    -3.71790004    -1.32933636    -0.35232119    -0.84939274
Ti     -3.79400121     4.29095574    -7.69522643     0.47933827     0.76943769    -0.43335367
Ti     -3.89689300     4.50235262    -3.66186009    -0.14616503    -2.52185223    -1.25946138
Ti     -2.12200547     0.06220415    -2.05845616     0.33973966    -1.63888853     0.07614556
Ni     -5.81887678     2.39816455    -8.02263088    -0.81809077    -0.16065934     0.08031378
Ni     -5.84960973     2.20378827    -4.08462374    -0.31985459     0.27852485    -0.09747080
Ni     -9.69100447     6.66470020    -7.81067121    -0.55680283    -0.83161427    -1.42728593
Ni     -9.77716883     6.48647262    -3.95227951     0.53845003    -0.32969721    -0.03889829
Ni     -1.97792607     2.09713297    -7.96180631     0.43332795     0.32725287     0.03561163
Ni     -6.02398937     6.54141353    -3.85942095     2.44573640     0.43597026    -0.60428841
Ni     -5.87372334     8.69851623    -5.83518645    -0.90495698    -0.13316334    -1.58427314
Mo     -6.04676053     0.06480809   -10.40265175     1.59204174    -0.02132496     1.69795115
Mo     -9.77016279     8.68412024    -6.37063631    -0.39834573     0.38194480    -0.04086828
O      -2.01964132     1.95056458    -1.95446741     0.67233307     0.24403734    -0.16328793
O      -1.99858128     1.86812009    -6.08390853     0.35294954    -0.50415545     1.06317577
O      -5.93027523     6.69922250    -1.90165217     0.70965186     0.64635121    -0.86156446
O      -5.96808991     6.80034077    -5.76145089     1.32083844     1.16550806     0.03129257
O      -5.88022893     1.95604564   -10.13534665    -0.00534849     0.31227697    -0.09251669
O      -5.82454850     1.90802444    -6.00614989    -1.00446918     0.38417028     1.07134356
O      -9.82110800     6.97690734    -9.75744464     0.62233457     0.42538798    -0.00175207
O      -9.66677362     6.78112877    -5.99889888    -1.05661830    -0.26082862     0.67818841
O      -3.95267280     2.39820089    -4.02236519     0.76488329    -0.06458900     0.39659305
O      -3.85077379     2.42336575    -8.01020898    -0.26629724    -0.83043060    -0.00956378
O      -7.84648265     2.44565331    -4.06983889     0.26857281     0.35395084     1.17043914
O      -7.82334740     2.40204029    -7.93717912    -0.58160113     0.68018867    -0.25980712
O      -3.78859256     6.33241876    -3.91840146     0.11770480     1.38765575     0.52553961
O      -3.85406226     6.25246452    -7.95897570    -1.07726426     0.73747736     0.32292903
O      -7.80798582     6.48178925    -3.85450165    -1.77959833    -0.74981034    -0.21789597
O      -7.76370459     6.34842674    -7.79516373    -0.29572667     0.36792052    -0.89917976
O      -4.15751043     4.33383086    -1.94340089     0.75760352     0.05719280     0.64386447
O      -4.04264926     4.24761201    -5.97456198    -0.02826429     0.45757817     1.27255104
O      -7.84625021     4.59483041    -9.95019907    -0.04698220    -0.87261033     1.36230869
O      -8.10966789     4.53922532    -5.90871931     0.43729321    -0.43415792    -0.20187805
O      -3.95382570     0.05734230    -2.10598021     0.09379767    -0.26145041     0.35253819
O      -7.93637411     8.71171137    -6.15999414     0.08615845     0.07390999     0.35196052
O     -11.64583207     8.67920488    -6.09714607     0.72577689     0.11773000     0.00361869
O      -7.73029653     0.07935557   -10.09082345    -1.52849751    -0.13377338    -0.01969704
O      -2.02856618     4.19474870    -4.08550849     0.96606531    -0.88505023     0.44453549
O      -9.76902099     4.59215536   -11.72545345     0.45896627     0.68190528    -0.78955120
O      -5.83610760     4.60190525    -3.91795387    -0.40342417    -0.26450315    -0.82944863
O      -5.91661000     4.31837497    -7.76913866    -0.18763967     0.29071036    -0.70923819
O      -1.92591836     0.26155302    -3.99333111    -0.14808287     0.05757254     0.73628196
O      -5.75978384     8.36342842    -8.02526539    -0.23291287     1.06548398     0.50927925
O      -9.75758028     8.51379327    -4.19060566    -0.22849008    -0.71810852     0.56448027
O      -5.85273837     0.58412636    -8.10975261    -0.12756840    -0.33906359    -0.92270519
