# total energy = -630.62956375 eV

CRYSTAL
PRIMVEC
        0.00285542     0.02004370    -7.95977623
       -7.82940539     0.00763210    -3.98158109
       -3.91729101     8.74642787     0.01461334
PRIMCOORD
56 1
Li     -3.97667643     2.35899534    -1.79191961     0.11200194    -0.07029884    -0.69036933
Li     -4.05375799     2.37200685    -5.95614224     0.25752649    -0.23018140     0.20764986
Li     -7.84025440     2.21391878    -9.91780825    -0.16791926    -0.09250876     0.02015711
Li     -7.76557835     2.50287787    -5.92649918    -0.15544627    -0.60841276    -0.26290253
Li     -3.84458291     6.63752934    -1.98349130    -0.48933911    -0.65414129     0.19741874
Li     -3.94467641     6.34144173    -5.83529233    -0.01230084     0.83077521    -0.42338401
Li     -7.80476061     6.22629677    -9.97725079    -0.44766565     0.24683616     1.06805751
Li     -7.75953525     6.60544798    -5.76838057    -0.51856056    -0.43426819    -0.05048484
Ti     -2.04343352     2.22998269    -3.96719592    -0.15380446    -0.47855056    -0.83797239
Ti     -5.87654303     6.64986019    -7.97032491     0.33862701     1.09136599    -0.18602961
Ti     -7.83309954     4.42269176    -7.72124201    -0.52033910    -0.37197756    -0.98736731
Ti     -7.89588529     4.23979608    -3.71774916     0.45767583     1.75575976     0.16196098
Ti     -3.89384815     4.36757005    -7.64138104     0.69498331     1.07714393    -1.51222820
Ti     -4.01507835     4.40081493    -3.82768082    -0.39042730    -0.60145918     2.49855304
Ti     -5.70897490     8.74108615    -2.13314008     0.09192761    -0.12237371     0.45699082
Ni     -5.90620273     2.44608763    -8.09314901    -0.13377861     0.24807869     0.87719369
Ni     -5.99342696     2.11090705    -3.95963860     1.53309958     0.28335724     0.14074516
Ni     -9.88908038     6.73143490    -7.88356772     0.51895206    -0.68056988     0.02444068
Ni     -9.74042061     6.50245388    -3.86488210    -0.21317358     0.29874490    -1.00098677
Ni     -1.95927642     2.23821972    -8.01345744    -0.40377230    -0.60191079     0.76569278
Ni     -5.85910608     6.57221597    -3.89338809    -0.45204438     0.18327514    -0.49892415
Ni     -1.85135856     0.01960752    -6.06364756    -0.49328965     0.36236585     1.60739364
Mo     -9.73624128     8.76868299   -10.26054849    -0.84379486     0.04173718     1.53081321
Mo     -9.67128239     8.72788189    -6.31019379    -2.81245133    -0.14085696    -0.43723069
O      -1.96387232     1.98360017    -2.04460408    -0.02985137    -0.74041539     0.82897182
O      -2.04758905     1.87507445    -6.05006726     0.92712921    -0.31570816    -0.47762350
O      -5.97725818     6.72094573    -1.98145171     0.49437969     0.82118299     0.68545011
O      -5.90628078     6.97177696    -5.77153796     0.47804325    -1.29258651    -1.14351892
O      -5.87556858     2.03030757    -9.97120995    -0.64638449    -0.42478044    -1.51859933
O      -5.93395228     1.86818157    -5.83256975    -0.04275110    -0.02979823    -0.26126927
O      -9.81070613     6.82244712    -9.83325599     0.50409071     0.36739671     0.65705989
O      -9.84303851     6.77093298    -5.91738116     0.48160932     0.83531244    -1.00093362
O      -3.96290632     2.30333627    -4.03649999    -0.07104019     0.42602152     0.52514233
O      -3.92493267     2.49558792    -7.85519692    -0.01681282    -0.28479359    -0.73341468
O      -7.85986021     2.37067528    -4.02398110    -0.87559769    -0.96312980     0.24535274
O      -7.81309643     2.47626526    -7.98464449    -0.21659157    -0.29857464     0.13992861
O      -3.95496031     6.34163720    -4.00661294     0.32991510     0.22336856     0.79020191
O      -3.96574530     6.37945236    -7.94034425    -0.23706272    -0.46160437     0.48698832
O      -7.79756004     6.29302456    -3.78899271     0.09514444    -0.22106146    -1.40397349
O      -7.86350848     6.32816484    -7.84210985     0.11237432     0.87167623    -0.61819707
O      -4.06943528     4.38287681    -2.03706538     0.52729518    -0.12981552    -0.71797160
O      -4.04127639     4.39142186    -5.88978183    -0.07067017     0.05050626     0.02054381
O      -7.90238791     4.29147995    -9.91383925    -0.48851243     0.08741451     0.02449078
O      -8.02927273     4.35489494    -6.01242639     0.45185166     0.14713895     1.73997444
O      -4.09871981     0.15009664    -9.70901675    -0.16327098    -0.50126021    -0.84977262
O      -8.00585056     8.56147874    -6.28883205     2.82348930     0.46032953     0.22929128
O      -3.91729073     8.60946167    -2.10050600    -0.10783629     0.08630706     0.39528694
O     -11.62548005     8.67012258   -10.00311753     1.57707681     0.96816615    -0.39304849
O      -2.00364990     4.06505537    -3.99481038    -0.64751132     0.67181932    -0.29747159
O      -9.81741435     4.65129055    -4.01985586    -0.60519449    -0.34398091     0.44092200
O      -5.98147474     4.09110688    -3.88711413     0.47615660     0.39770017    -1.00494642
O      -5.87844258     4.42403078    -7.99002832     0.02952342     0.20008209     0.35581037
O      -2.00438736     0.17839794    -3.97086899    -0.25968027     0.55822405    -0.58885196
O      -5.79013016     8.53387053    -7.92884459    -0.28909319    -1.15932310    -0.55820494
O      -9.53270136     8.49190824    -4.12177260    -0.73494054     0.05821900     0.70276463
O      -6.04223735     0.65609414    -8.03408826     0.25676657    -1.09196909     0.49654765
