# total energy = -630.32373559 eV

CRYSTAL
PRIMVEC
        0.00279571     0.02951795    -7.98606283
       -7.83802570     0.01298533    -3.99532603
       -3.92160916     8.71933433     0.00634407
PRIMCOORD
56 1
Li     -3.83937681     2.32852148    -1.90019938    -0.46082522    -0.26048921    -0.25972601
Li     -4.19025631     2.42404461    -6.09049992     0.64865049     0.21178411     0.45715373
Li     -7.81198333     2.38340053    -9.89101588    -0.32192710    -0.16924700    -0.81398026
Li     -7.89371768     2.11039489    -6.00912766     0.39680038    -0.14369124     0.25675205
Li     -3.91038297     6.69121104    -2.14621785    -0.46379542     0.24471339     0.89738940
Li     -3.91930839     6.41609272    -5.77159795     0.02337666     0.48137082     0.02781611
Li     -7.90693742     6.27981356    -9.89707681    -0.01606280     0.32524965    -0.20863221
Li     -7.97005807     6.30772130    -5.83352856     0.48393132     0.11298764    -0.26146340
Ti     -2.04488759     2.20806094    -4.20241975     0.47218979    -0.60096559    -0.08165651
Ti     -5.87911628     6.71434825    -7.92210422    -0.13085593     0.32653251    -0.05324714
Ti     -7.72517980     4.33407975    -7.61371409    -0.49217065    -1.15174936     0.06480959
Ti     -7.77941680     4.30729771    -3.73408046    -0.46642664    -0.46734837    -0.50599575
Ti     -3.80522956     4.57641659    -7.73938884     0.40735739    -2.35009818     1.41913661
Ti     -3.88900957     4.38506595    -3.69388299    -0.17157348     0.19352597    -0.71838552
Ti     -2.06402034     0.01729405    -2.10276558    -0.97671702     0.05921395    -1.22920573
Ni     -5.76533115     2.40209871    -8.15867458    -0.96506798    -0.15574356     1.07911361
Ni     -5.91703218     2.17161384    -3.95362714    -0.50529172     0.03636831    -0.92319201
Ni     -9.71607427     6.57174017    -7.80330379    -0.58752795    -0.14750673    -1.50279809
Ni     -9.82405434     6.41532594    -4.02354118     0.89006149     0.81300344    -0.10596952
Ni     -2.01580942     2.17874384    -8.13870092     0.71483839     0.16890711     2.70500227
Ni     -5.95872086     6.43666773    -4.02030321     0.38349259     0.66626084     0.96665696
Ni     -6.01101938     8.71934202    -6.01869640     0.92696203     0.28634986     1.39689053
Mo     -6.01717263     0.06295589   -10.27218920    -0.36953236    -0.36315628     0.03725295
Mo     -9.68763581     8.69829853    -6.36025514    -2.55497491     1.11504904     0.38076226
O      -1.98735819     2.01756491    -1.92856464     0.40694857    -1.13399372    -1.57332364
O      -2.10117473     1.90294947    -6.10574339     0.54662435    -0.42306644     0.25204736
O      -5.88970034     6.74075044    -2.11734073    -0.23010903     0.69226700     1.57779689
O      -5.94642966     6.79174784    -5.87097164     0.09568564     0.88991838    -1.50124480
O      -5.91775848     1.99986387   -10.12811596     0.52100968     0.10317441     0.56877113
O      -5.93228560     1.89196053    -5.78629336     0.11099099    -0.58494870    -0.74791411
O      -9.77569049     6.96986896    -9.71307202     0.25157314    -0.37244854     0.45433324
O      -9.85626474     6.74919864    -5.98907778     0.95195034     0.64346830     0.34606593
O      -3.97470033     2.42321908    -4.08046891     0.33251480    -0.13913345     0.46987594
O      -3.84863745     2.55956093    -7.96410555    -0.68923878     0.12759686    -0.16139654
O      -7.86706733     2.37060733    -3.94906781    -0.09917340    -0.17449145    -0.12706732
O      -7.84501301     2.37149090    -8.05428645     0.58059240     0.95835287     0.68676501
O      -3.73642415     6.27151570    -3.87710397    -0.26159535     0.58164643    -0.73296833
O      -3.94510783     6.44114060    -7.95149131    -0.47520465     0.60302155    -0.25747702
O      -7.88252348     6.30807998    -4.02750284    -0.15441377    -0.28226219     0.84171072
O      -7.82452898     6.31020128    -7.90200529     0.28041410    -0.19797710     0.15876622
O      -3.92946504     4.29395111    -1.96031896    -0.28350165     0.24963105     0.82466206
O      -4.14670711     4.55922903    -5.91953139     1.02192318    -0.69348919    -1.37475082
O      -8.03170520     4.31442681    -9.98700682     0.05628193     0.44543226     1.25340122
O      -7.87153845     4.29409991    -5.84301038    -0.02030525     0.16809125    -1.71194714
O      -3.93893170     0.10296565    -2.05426020     0.41523750     0.04648025     0.24133825
O      -4.00116152     0.06307880    -6.04180428    -1.10620098    -0.57115512    -0.33548989
O      -7.75323361     0.04214648    -6.22565603     1.03299062    -0.59101963     0.95163136
O     -11.73819103     8.75098608   -10.10767153     1.26389023     0.17618934    -0.09533228
O      -1.89322921     4.07772699    -3.97779348    -1.03808636     0.01212606     0.01379886
O      -9.76595361     4.55922933    -4.09274940    -1.23510586     0.20506914     0.49823064
O      -5.92528952     4.51669118    -3.74915937     1.30923313     0.14986143    -0.93177158
O      -5.84074753     4.38961054    -7.83058700    -0.38690656    -0.13163398    -1.27326496
O      -1.94287887     0.16881377    -4.05318184    -0.30481992     0.93842820     0.31088245
O      -5.89485913     8.53675480    -7.90708428    -0.15145314    -1.02247553    -1.23933685
O      -9.67279924     8.31891135    -4.00946851    -0.57726566    -0.04066652    -0.40123128
O      -5.89405770     0.50282926    -8.14093670     0.83730387     0.88888112     0.12757803
