# total energy = -630.78420589 eV

CRYSTAL
PRIMVEC
        0.00279571     0.02951795    -7.98606283
       -7.83802570     0.01298533    -3.99532603
       -3.92160916     8.71933433     0.00634407
PRIMCOORD
56 1
Li     -3.98297068     2.23866675    -1.90120583     0.18595542     0.12915849    -0.08560421
Li     -3.97405662     2.13161784    -5.97846333     0.35407980     0.12064562     0.20177167
Li     -7.81778589     2.29502584   -10.00180602    -0.22206942     0.19942510     0.05556470
Li     -7.77609340     2.23587571    -5.88791766    -0.22587621    -0.01871259     0.10953974
Li     -3.84640760     6.50861840    -1.96013459    -0.41693010    -0.03370528     0.13119953
Li     -3.90085674     6.45290605    -5.88050659    -0.07990336    -0.13276436    -0.07137970
Li     -7.94108492     6.52648869    -9.96508154     0.31556725    -0.17377634     0.11291533
Li     -7.89960386     6.60352551    -5.87721020     0.22943507    -0.09433276     0.07921664
Ti     -1.90706701     2.30249144    -4.01290449    -0.44658718    -1.22316170     0.02051373
Ti     -5.88385813     6.51115852    -7.89017171     0.85225331     2.88701224    -0.37723042
Ti     -7.77681375     4.40155108    -7.71658424    -0.45702886    -0.14021357    -0.48568646
Ti     -7.81565460     4.38941773    -3.74422489    -0.10319949    -0.38597088     0.24242136
Ti     -3.87369465     4.34803578    -7.70983454     0.75218984    -0.00047646    -0.23519786
Ti     -3.95220281     4.39832203    -3.72478284    -0.36224634     0.35397475    -0.09142942
Ti     -6.19113741     8.70199922    -2.10530833     0.21763029     0.00161107     0.81478428
Ni     -5.84504114     2.16310760    -7.93579873    -0.19448160    -0.30750396    -0.60018772
Ni     -5.87465033     2.32592998    -3.96873894     0.17539553    -0.26420771    -1.03756164
Ni     -9.80712363     6.60244087    -7.90875464    -0.11328702     0.12701912    -0.66743084
Ni     -9.78146894     6.43287139    -3.96459329    -0.32816941     0.46476777    -0.83614258
Ni     -1.95012906     2.24975167    -7.97448122     0.17578830    -0.72773272     0.03961998
Ni     -5.88229292     6.52865093    -4.02737465     0.17088823     0.32583683     0.15308423
Ni     -5.92282211     8.73124826    -5.96635592    -0.06080644     0.40985418    -0.32040982
Mo     -6.06017465     0.04089633   -10.27397603     0.02794396    -0.13369962    -0.21403431
Mo     -9.77682108     8.72544327    -6.41969561     0.27924291    -0.45681352     1.43365306
O      -1.93942199     1.94529712    -1.86294333    -0.07048806    -0.03929255    -0.97129819
O      -1.97125704     1.85427136    -6.07906113     0.01161730     0.21547700     0.71143454
O      -5.85724102     6.78597837    -2.17255943    -0.16285521    -0.13761298     0.03443269
O      -5.90992501     6.85741001    -5.92931233     0.00465308     0.07253218    -0.39979903
O      -5.91801331     2.01302802    -9.98005322     0.20212365    -0.67183048    -0.06057110
O      -5.85376869     2.09770852    -6.03775294     0.03909132    -1.27019439     0.09623440
O      -9.83628068     6.80544696    -9.93905652     0.11752228     0.81852761     0.11867923
O      -9.77245304     6.68821281    -6.04173135     0.01675625     1.21299415     0.26941197
O      -3.91341226     2.44726598    -3.96275415     0.10242698    -0.19357579     0.08254066
O      -3.92298384     2.39798546    -7.96606462     0.05276975     0.44582411     0.24243663
O      -7.79843791     2.38624164    -3.96566609    -0.40198771     0.54470819     0.11268605
O      -7.80470184     2.41432650    -7.96550315     0.07251103     0.12268297     0.04651363
O      -3.89149717     6.39231952    -3.97462785    -0.06029014    -0.58119816     0.26356995
O      -3.90949548     6.33953906    -7.93012090     0.05512213    -0.00296583     0.05495539
O      -7.85214637     6.33260575    -3.96015830     0.26981177    -0.10019644     0.02668721
O      -7.84004993     6.35866282    -7.94421745    -0.39743331     0.05918218     0.06729721
O      -3.92529968     4.36585285    -1.95066612    -0.15078124     0.08315229    -1.13452422
O      -3.86665374     4.42644675    -5.94064355    -0.05998697    -0.05043200    -1.04620818
O      -7.88601366     4.36103901    -9.93586785     0.09132560     0.05956957    -1.26044120
O      -7.88407444     4.33902950    -5.96867944     0.14224924     0.07526109    -0.79024979
O      -4.05870675     0.05037718    -9.95366555     0.01065106    -0.05021234    -0.52006963
O      -4.07919116     0.04045988    -5.90927347     0.67116641    -0.10605273    -0.78793817
O      -7.52045984     0.02431896    -5.85758052    -0.10490796     0.07758957    -0.82879048
O     -11.75411411     8.75306667   -10.07369299     0.01648326    -0.01732752    -0.36728188
O      -1.94913022     4.15637264    -4.20314371     0.05709436     0.32407534     1.14344354
O      -9.79064946     4.57968792    -4.24378154    -0.11334969    -0.53709095     1.56906658
O      -5.88499391     4.20952506    -4.27385463     0.11024354     0.44095085     1.62712681
O      -5.86901711     4.66753284    -8.17754536     0.03395673    -1.04620319     0.96941520
O      -1.88470380     0.34366826    -3.90617306     0.02124640    -0.09416994    -1.22612925
O      -5.78982642     8.41764229    -8.25942615    -0.20018854    -0.56725983     1.73823028
O      -9.60808279     8.70426513    -4.02265010    -0.85803643    -0.03774413     0.50249106
O      -5.82321452     0.14931743    -8.26804454    -0.53660955     0.28263192     1.41457877
