# total energy = -630.85544890 eV

CRYSTAL
PRIMVEC
        0.00279571     0.02951795    -7.98606283
       -7.83802570     0.01298533    -3.99532603
       -3.92160916     8.71933433     0.00634407
PRIMCOORD
56 1
Li     -3.92377794     2.32005007    -1.84177497    -0.41309822    -0.04159645    -0.68203175
Li     -3.84728793     2.25746812    -5.93992097    -0.50044921     0.30311017    -0.23852019
Li     -7.85750002     2.26118253    -9.94188815     0.09378056    -0.05092856    -0.18282931
Li     -7.92170206     2.39298614    -5.81940769     0.27814429    -0.08285638    -0.54518456
Li     -3.83270042     6.19558587    -2.03044787    -0.24505700     0.71684160     1.14742608
Li     -3.77017201     6.46709681    -5.91775180    -1.21989215    -0.23868029     0.02765473
Li     -7.91967750     6.55701434    -9.95323819    -0.02095130    -0.07031939     0.18071467
Li     -7.73832229     6.32865955    -5.93150058    -0.46502084     0.29693663     0.62254155
Ti     -1.97342603     2.38008438    -3.98027040    -0.72898763     1.09990030     0.15191282
Ti     -5.91958866     6.90585695    -7.98019998     0.87125549    -0.02751468     0.18757905
Ti     -7.64138718     4.44597764    -7.73895707    -1.20768952    -0.38272824    -1.74670588
Ti     -7.76847870     4.36278886    -3.65123936    -1.15553700    -0.02081672     0.25500505
Ti     -3.84154981     4.38684304    -7.82206470     0.43361583     1.48796924     2.54605735
Ti     -4.11098409     4.47782101    -3.74944694    -0.01337856    -1.80767478    -1.05524636
Ti     -5.66001008     8.68925501    -2.24541370     0.22968328    -0.59335179     2.74973668
Ni     -5.90470186     2.36109507    -7.96972927     0.44914017    -0.01021501    -0.23694572
Ni     -5.96627791     1.98122252    -4.02363128     0.70406005     0.86182387     0.86660915
Ni     -9.83370279     6.51640293    -7.98389575     0.27252307     0.24429735     0.97674396
Ni     -9.87297883     6.45010130    -3.91647888     1.12060138    -0.50502268    -0.23798537
Ni     -2.03494235     2.01887615    -7.97450030     0.90061562     0.54440900    -0.10045924
Ni     -5.88582669     6.74707578    -4.03027189    -0.66475942    -1.27331542     0.51508542
Ni     -5.88419446     8.70852282    -6.01332970     0.54396217    -1.32315448     0.36011434
Mo     -5.96674078     0.08894168   -10.39096216    -0.59468455     0.07590944     1.78565328
Mo     -9.68859293     8.61611229    -6.25450145     0.93663467     0.01428450    -0.06103332
O      -2.08549966     1.90709578    -1.99392158     0.67752343    -0.23354643    -0.79139950
O      -1.88034352     1.79379344    -6.13353226    -1.02590932     0.77005582     1.12572904
O      -5.88144151     6.75298960    -1.89834401    -0.37313705     0.60175616    -1.05603362
O      -5.85442016     6.81253577    -5.91560984    -0.05845532     0.84719518    -1.33804769
O      -5.89293752     1.99926757   -10.03426648    -0.50838438    -0.37171067    -0.86707322
O      -5.88738532     1.85019510    -5.86135009    -0.08245031     0.08886947     0.38274174
O      -9.84920764     6.77006463    -9.80572357     0.02387554     0.79121798    -0.97942945
O      -9.75353727     6.72326224    -6.09925624    -0.59923664    -0.10240153     0.17902240
O      -3.93394243     2.44020074    -3.98963642    -0.12968887    -0.46754641    -0.29985643
O      -3.92324861     2.53751914    -7.97752637    -0.16235806    -2.01906912     0.47873493
O      -7.86139119     2.38139458    -3.99450232    -0.08110040     0.33284020     0.41323788
O      -7.87282744     2.45315050    -7.96857487    -0.14272420    -0.25884103     0.28396212
O      -3.88744078     6.34131977    -3.87456157     0.74040469     1.02893606    -0.56031156
O      -3.98765344     6.36389336    -8.02992363    -0.30776777     0.02124646     0.24602167
O      -7.93147417     6.30016292    -3.87920133    -0.38276736     0.75530550    -0.45066436
O      -7.85419403     6.38588390    -7.92742549     0.45235125     0.10247641    -0.14424004
O      -3.98009892     4.27793227    -1.98799390     0.24904270     0.35818722    -0.29569036
O      -3.92676547     4.45621273    -5.96241841     0.02057698    -0.49765810    -1.30371034
O      -7.94414531     4.38519589    -9.86825231     0.05600385    -0.29993554    -0.64419302
O      -7.80556939     4.40916988    -6.02069139    -0.09005868    -0.44161773     1.32970003
O      -8.17870673     8.63892687   -10.01805868     0.98811535     0.38106244    -0.07035957
O      -7.87940808     8.57938602    -5.95776785    -0.60506132     0.58698357    -0.65210027
O     -11.72358908     8.70616852    -5.94122177     0.98285857    -0.05189489    -1.04708613
O      -3.91345861     8.69831375    -5.99960597     0.45492491     0.07212342    -0.20779796
O      -2.02920578     4.22479475    -3.94202957     0.39324159    -1.08025405    -0.17144362
O      -9.75366088     4.59475781    -4.01543286    -0.67428499    -0.12635143    -0.07710328
O      -5.96764939     4.82529813    -3.99398128     0.76507949     0.20512471    -0.08406339
O      -5.84574761     4.30110365    -8.16090669     0.31605211    -0.19271131     0.68715291
O      -5.94879812     8.69268038    -4.00247290     0.01089819     0.45440188    -1.26982580
O      -5.94013069     8.69011709    -8.23067589    -0.33298809    -0.20417083     1.11323911
O      -9.90431244     8.32709137    -4.14709865     0.07751823    -0.15116778    -0.33492111
O      -5.84919794     0.54716898    -7.92882535    -0.35399804    -0.25160694    -0.80277599
