# total energy = -630.87858830 eV

CRYSTAL
PRIMVEC
        0.00285542     0.02004370    -7.95977623
       -7.82940539     0.00763210    -3.98158109
       -3.91729101     8.74642787     0.01461334
PRIMCOORD
56 1
Li     -3.86139400     2.38319335    -1.88459705    -0.23609091    -0.30277841    -0.23678786
Li     -3.94422823     1.95136912    -6.11414554     0.01156459     0.39989246     0.54038232
Li     -7.85927376     2.15454762   -10.01211382    -0.10114337     0.31568962     0.21881631
Li     -7.73999911     1.84197027    -5.89861642    -0.71895161     0.88175221    -0.18844430
Li     -3.94938954     6.27837135    -2.09315225     0.32466575     0.21879816     0.66060974
Li     -3.93914190     6.40219130    -5.80979487    -0.04539161     0.29086565    -0.02046707
Li     -7.86948012     6.25863307    -9.94097238    -0.28052736     0.43120056     0.31731061
Li     -7.78005289     6.37307620    -5.91913743    -0.35252556    -0.08993991     0.32125516
Ti     -2.00601833     2.21968038    -4.09667790     1.83628576    -0.88991910     0.89822534
Ti     -5.86851364     6.66676427    -7.96369128    -0.20011426     0.55486350     0.97027246
Ti     -7.71879691     4.35514061    -7.78759769    -1.56026732    -0.72565022     1.54027330
Ti     -7.82062788     4.37178693    -3.73272133     0.92043428    -0.62004619    -0.95310299
Ti     -3.73363806     4.42683439    -7.66190940     0.33212749    -0.10955927    -0.17946723
Ti     -3.93609847     4.23920537    -3.85147977    -1.07851186     1.45542360     0.75988835
Ti     -6.12344847     8.73090248    -2.02060498    -0.42446841     1.02583833    -0.61266471
Ni     -5.74611876     2.49910115    -7.97163636    -1.78375571    -0.19687958    -0.75308734
Ni     -5.94457315     2.16610681    -4.09569229     0.19879171    -0.14095672     0.62827954
Ni     -9.75601969     6.58492606    -7.84836995    -0.48493191     0.06913202    -0.18133791
Ni     -9.86437503     6.61418073    -3.96621131     0.95181419    -0.33180579    -0.64956367
Ni     -1.96921006     2.16249641    -7.97107895     0.92707355     0.06798977    -0.29281365
Ni     -5.83370503     6.63165083    -3.88561967     0.33893584    -0.16846038    -1.01915326
Ni     -5.94487161     8.72485759    -5.90182623     0.34498975    -1.70430080    -0.15244576
Mo     -6.05256154     0.06193515   -10.09717807    -0.25015597     0.02315791    -0.22901975
Mo     -9.74454161     8.71501369    -6.34297375    -2.24090936    -1.82361598    -1.27445688
O      -1.88525209     1.93162027    -1.96273774    -0.41290043    -0.75630729    -0.00053304
O      -2.03306839     1.79520347    -5.96262992     0.62115470     0.25284779    -0.94911284
O      -6.00077682     6.77237415    -1.91432146     0.65052504    -0.17645156    -0.90689903
O      -5.90488139     6.82950004    -5.90996557     0.38629013     0.58986576     0.26007822
O      -5.95238929     2.00709340   -10.07500586     0.74866689     0.54163001    -0.81797064
O      -5.87217300     1.93917627    -5.98570498     0.31520606     0.74636929     0.65473567
O      -9.72272901     6.98928367    -9.68587014    -0.16051844    -0.54526770    -0.24483715
O      -9.76119260     6.70047342    -6.02770502    -0.03636702     1.44217251     0.99437007
O      -3.84495001     2.26552300    -4.06625942    -1.55842191     0.21711248     0.46311664
O      -3.86878509     2.52162213    -7.91457205     0.30101954     0.10465732    -0.32767618
O      -7.88188081     2.35514962    -3.95725685    -0.13293848     0.25333222    -0.49137098
O      -7.68969480     2.39709987    -8.03667062    -0.66495576     0.66202036     0.55464298
O      -3.80318887     6.32293182    -3.93708753    -0.73069868    -0.28892474    -0.14541398
O      -3.97955830     6.36129387    -7.98110268     0.55000805     0.02491514     0.31286772
O      -7.67238345     6.35668066    -3.98072891    -1.32856354    -0.60426417     0.84015770
O      -7.89883012     6.39420054    -7.88553094     1.15391642    -0.66007376    -0.67801985
O      -3.91078052     4.35873807    -2.08325292    -0.14858268    -0.23793854     0.22716425
O      -3.80124419     4.41899546    -5.89183825    -0.31243719     0.48557673    -1.24564922
O      -7.97622812     4.15696416    -9.92728089     0.08297444     1.53341219    -0.32807117
O      -8.02647329     4.39111440    -6.03210526     0.80352887    -0.19378926    -0.89382596
O      -4.01251725     0.15353364    -9.96714647     0.68193316    -0.18164649    -0.03041288
O      -4.07981505     0.05068746    -6.03478970     1.46511614    -0.63747014     0.43352526
O     -11.54431857     8.73316151    -5.98452546     0.31605075    -0.54336899    -0.30515170
O      -3.92439157     8.70823444    -5.96689849     0.69521910     0.19048112     0.18760666
O      -2.03068905     4.06330239    -4.06825606     1.31395186     0.05614418    -0.01780514
O      -9.70560093     4.54136488    -4.09156269    -1.56772247     0.82323769     0.53076842
O      -5.89838149     4.19482695    -4.10700887    -0.12240266    -0.46603685     0.12509347
O      -5.84692086     4.45772576    -8.02988425     0.97243446     0.07719574     0.50701191
O      -1.87581536     0.13738600    -3.93701450    -0.28900197     0.28488434     0.45608277
O      -5.79083169     8.51598200    -7.96241721    -0.46103721    -0.09210116    -0.05233958
O      -5.98135302     0.09399283    -3.97779231     0.51772982    -0.01350323    -0.13553026
O      -5.79862902     0.73936848    -8.13256917     0.07384896    -2.02608947     0.84775274
