# total energy = -630.13818339 eV

CRYSTAL
PRIMVEC
        0.00279571     0.02951795    -7.98606283
       -7.83802570     0.01298533    -3.99532603
       -3.92160916     8.71933433     0.00634407
PRIMCOORD
56 1
Li     -3.89840005     2.25580737    -2.00783956     0.43091611    -0.30657387     0.63689620
Li     -4.18777572     1.98410109    -5.97222649     0.77200554     0.19927869    -0.48593679
Li     -7.61335106     2.60801956    -9.95131864    -0.08352171    -0.35635935    -0.10155151
Li     -7.83324424     2.39228509    -5.87388572    -0.11359395     0.06543159    -0.28954918
Li     -3.77523843     6.48188683    -1.97746456    -0.37238201    -0.13112343     0.05341917
Li     -3.90511803     6.66597907    -5.97264189     0.46923888    -0.62718286    -0.02064735
Li     -7.98993777     6.44116408   -10.01852340     0.44121150     0.14011300     0.75539169
Li     -7.79872295     6.71121625    -5.84822225     0.41297939     0.05862523     0.08702520
Ti     -2.03577916     2.24500043    -4.37776641     0.87161140     0.60235839     1.41712988
Ti     -5.77510379     6.56841871    -8.02293653    -0.27260784    -0.02505446    -0.56179226
Ti     -8.06446618     4.52022663    -7.61249602     0.44803062    -0.34880482    -1.78230935
Ti     -7.90782060     4.47870544    -3.77651560    -0.82175501    -0.48315251    -1.17890914
Ti     -3.98373823     4.28883795    -7.77894239     1.97402332    -0.74505653     0.64819081
Ti     -4.06199272     4.35176133    -3.69903169     0.62971341     0.26040813    -0.96470638
Ti     -5.99505826     8.67995186    -2.19579674    -0.74522457     0.33246910     0.90488048
Ni     -5.93302822     2.47185267    -7.91002760     0.81466407    -0.58146779    -0.25177631
Ni     -5.88475022     2.24799682    -4.01856522    -0.23445298     0.02440886    -0.63956843
Ni     -9.81351015     6.52261978    -8.02818980     0.53359661     0.78729678     0.45917506
Ni     -9.74084948     6.51374848    -4.08201955    -0.56740561    -0.42373652     0.77260266
Ni     -1.82244151     2.08915593    -8.05874412    -0.90290252    -0.21581380     1.50101444
Ni     -5.69982407     6.47855554    -3.98307514    -1.12990632     0.21612751     0.18595007
Ni     -5.78510250     8.72676163    -5.99519404    -0.46559218    -1.63720851    -0.24169297
Mo     -5.97648393     0.12496042   -10.08147871     0.82800593    -0.56829244    -1.96027956
Mo     -9.89294233     8.64081235    -6.35430490     0.18946304     0.02097569     0.90456617
O      -1.81921455     1.85600902    -1.83259714    -0.26713258    -0.78319479    -1.42185644
O      -1.92317204     1.82868948    -6.14894246    -0.00498893     0.72256765    -0.57582124
O      -5.72269981     6.63635347    -2.00968469    -0.79518492     0.94123557    -0.26122008
O      -5.75063691     6.86815305    -5.86403640    -0.51741131     0.31440786    -0.40002966
O      -5.76058800     2.00906222   -10.18298993    -0.24071264     0.51378397     0.46686452
O      -6.03339783     1.90817427    -5.88304043     0.45638610    -0.05875603     0.11169985
O      -9.83226039     6.90945603    -9.93252045     0.26721137    -0.55361138     0.69619645
O      -9.71484941     6.76804922    -6.06739514    -0.65547195    -1.15867982    -0.11410505
O      -3.90329585     2.37121680    -4.04207271    -0.23542671    -0.32774584    -0.29877896
O      -3.80289711     2.30397570    -7.98937782    -0.69008898     1.43360128     0.33839614
O      -7.76649053     2.40815902    -3.95520597    -0.23009224     0.61295965     0.36184703
O      -7.81701881     2.66618656    -7.97406544    -0.74612405    -1.84939883    -0.72638720
O      -3.79594392     6.27121372    -4.04695553    -0.54299084    -0.10289083     0.55600447
O      -3.82463667     6.34927145    -8.05272461    -1.45499529    -0.47496662     0.61522184
O      -7.75348612     6.41843550    -3.85676866     0.25316646    -0.11307787    -1.09024649
O      -7.85410721     6.36234678    -7.97551751     0.45286072     0.73994144    -0.15741028
O      -4.07016714     4.19981807    -1.97165147     0.72829740     0.44394117     0.43519507
O      -3.76075456     4.31775493    -6.04055511    -0.62526183    -0.18049389     0.11576349
O      -8.01283835     4.42401296   -10.03572124     0.30108750     0.10964162     1.22917392
O      -7.80383156     4.38655314    -5.94119498     0.10793999     0.25711791     2.21636412
O      -3.91727140     0.07502257    -9.77348328     0.67210088    -0.34346113    -1.35372699
O      -8.14900184     8.67586993    -5.81460635     0.00066545     0.62368596    -0.40828702
O      -3.86647819     8.53599805    -2.01164722     0.42378250     0.16973563    -0.39376817
O      -7.69662316     0.24316496    -9.81766491    -0.45184749    -0.35390468     0.20933210
O      -2.07164864     4.16145664    -3.92317639     0.30344673    -0.56340252    -0.16731012
O      -9.83489505     4.62842678    -4.08550095     0.78873645     0.18974433    -0.40901496
O      -5.88979905     4.36052053    -4.01042508    -0.83530208    -0.18533576    -0.46563191
O      -5.92301531     4.35721277    -7.98446091    -0.04237256     0.79126335     0.24063594
O      -1.93951066     0.31393848    -4.10036333    -0.10597544     0.31998543     0.77476815
O      -5.83354224     8.35171827    -7.97704238     0.22581136     0.79882862     0.58003892
O      -9.97850232     8.38557380    -3.89633438     0.73739814     0.49642690     0.48519326
O      -5.83304343     0.52247744    -8.04457581    -0.33592974     1.36860534    -0.63770978
