# total energy = -630.97383722 eV

CRYSTAL
PRIMVEC
        0.00279571     0.02951795    -7.98606283
       -7.83802570     0.01298533    -3.99532603
       -3.92160916     8.71933433     0.00634407
PRIMCOORD
56 1
Li     -3.99049337     2.26219472    -1.97672939     0.16350525    -0.03712737     0.36131685
Li     -3.92337712     2.42592562    -5.94771335     0.05861469    -0.14001139    -0.25743543
Li     -7.82486214     2.15662456    -9.88988700     0.11493280     0.55448509    -0.31170703
Li     -7.92054823     1.94943367    -5.86809057     0.15155439     0.63346554    -0.00966970
Li     -3.69730193     6.55565526    -2.06671297    -0.95726778    -0.03402827     0.26069535
Li     -3.96138524     6.27193232    -5.86109709    -0.08045483     0.34939584    -0.55047739
Li     -7.86676794     6.45544101   -10.02280544     0.12059388    -0.11721331     0.63165602
Li     -7.81047326     6.72498598    -5.87641158    -0.36386771    -0.34412566    -0.01031611
Ti     -1.92932024     2.27406521    -4.06644817     0.43002745     0.54708905     0.73831319
Ti     -5.81493618     6.70048525    -7.97334716    -0.58149607    -0.33164211     0.19994488
Ti     -7.66630124     4.46183157    -7.66593565    -1.08631276     0.03982859     0.43805155
Ti     -7.73643953     4.31338706    -3.71633981    -0.74184849     0.54026586    -0.84586592
Ti     -3.82037810     4.35295871    -7.79663536     0.88999760    -0.03049285    -0.14321008
Ti     -3.94332527     4.35306774    -3.75782431    -0.83331106     1.18339248     0.36979488
Ti     -6.19079248     8.64968471    -1.99515680    -0.00017652     1.93755021    -0.49426698
Ni     -5.87483744     2.17002805    -7.90473517     0.09427692     0.63722493    -0.36850862
Ni     -5.85240315     2.18311372    -3.91123471    -0.55070936     1.32936138    -1.00419853
Ni     -9.89136782     6.33665241    -8.04129983     1.84486460     0.34365101     0.43966855
Ni     -9.79568096     6.53844185    -4.03039082     0.70459479    -0.40819445    -0.65946867
Ni     -1.95513929     2.06795969    -8.00395548    -0.19777248     1.17673191     0.11493638
Ni     -5.84999756     6.82663355    -3.98677082    -0.43338361    -0.51623548    -0.46862893
Ni     -2.09747675     0.12752794    -5.94740372     1.04342420     1.03061679    -0.06680999
Mo    -10.05443743     8.62108919   -10.26159060    -0.68779069    -0.03390771    -0.47811383
Mo     -5.85116811     0.18619941    -6.48651344    -0.07350542    -1.33649982     1.61215218
O      -2.05072321     1.89575092    -1.92204336     0.45975502    -0.28537846     0.02726654
O      -1.88859564     1.98300497    -5.94474956    -0.76868010    -0.12456869    -0.94622347
O      -5.76374144     6.81095905    -2.08674553    -0.11919199    -0.34485201     0.59308322
O      -5.89825087     7.09331273    -5.91337868    -0.54253989    -2.09342238     0.23085438
O      -5.90079497     1.74306351    -9.77508535    -0.16647581     0.62355117     0.53206784
O      -5.84350170     2.05592499    -6.01201369    -0.34257576    -0.13250594    -0.27202318
O      -9.76663849     6.77939327   -10.16085762    -0.64737881    -0.77494228     0.64917614
O      -9.76558736     6.84732308    -5.89035681     0.49684333     0.56054059    -0.22564969
O      -3.88501228     2.46026977    -4.03642958     0.03750033    -1.10823670     0.26549999
O      -3.98962559     2.45633181    -7.95745629    -0.13441549    -1.02080440    -0.03832905
O      -7.84753774     2.35616066    -3.95053145     0.09717262    -0.38916800    -0.04649075
O      -7.83281361     2.48647829    -7.90855856     0.70735379    -0.45130757    -0.03661284
O      -3.90406364     6.35176316    -4.03031275    -0.85539649    -0.93956974     0.44874191
O      -3.92714218     6.27245689    -8.00042941     0.73871183     1.65014392    -0.21422023
O      -7.85931536     6.37857353    -3.88263172     0.61499208    -0.22307950    -0.72346052
O      -7.77675190     6.43058112    -7.94599914    -0.45057457    -0.66268719    -0.40865918
O      -3.85373892     4.25980041    -2.01206639    -0.19281333     0.44196229     0.24563876
O      -3.69912017     4.41940020    -6.03750552    -0.51565874    -0.31167108     0.69619161
O      -7.75761514     4.31886012    -9.96144977    -0.01954486     0.34925678     0.85010570
O      -7.74343858     4.47255224    -5.93639587    -0.09055710     0.05597287     0.06123293
O      -7.94939986     8.63066409    -9.85156933    -0.40166149     0.06883244    -0.96659041
O      -4.02518102     0.13634668    -6.20701800    -0.16028194    -0.07409337     0.58193495
O      -7.61908537     0.08272620    -6.13639768    -0.02202167    -0.00464427     0.53866325
O      -4.01712785     8.57010940    -6.20894564     1.69514767     0.86832522     0.52929309
O      -9.75150446     4.34531107    -7.94130909    -0.26093606     0.44715857    -0.35989693
O      -9.71275458     4.32890754    -4.04761158    -0.41242474    -0.13506461    -0.15538665
O      -5.85298097     4.06904159    -3.99466975     0.55812037    -0.03311148    -0.12645943
O      -5.83323947     4.72529148    -7.88094482     0.90017190    -0.29719912    -0.41432836
O      -1.88853541     0.43163054    -3.98284992    -0.56751712    -1.36852189     0.57100071
O      -5.95443303     8.58643363    -8.02142377     0.60509737     0.13651206    -0.63809435
O      -5.87297789     0.36562168    -4.02034652     0.41867050    -0.65567759    -0.05664717
O      -9.95983334     8.19690225    -8.16825442     0.36188231    -0.17047192    -0.85055921
