# total energy = -630.96499392 eV

CRYSTAL
PRIMVEC
        0.00285542     0.02004370    -7.95977623
       -7.82940539     0.00763210    -3.98158109
       -3.91729101     8.74642787     0.01461334
PRIMCOORD
56 1
Li     -3.86898564     2.45018671    -1.91157445    -0.16163071    -0.13825117    -0.26171638
Li     -3.90732592     2.01221401    -6.02427508    -0.39418279     0.01153417     0.28557889
Li     -7.90205784     2.25804215   -10.08063339     0.16990750    -0.24556788     1.23198728
Li     -7.80595097     2.27083758    -5.92317513     0.08559931     0.31208403     0.01506988
Li     -3.93508700     6.38136451    -1.96889348     0.16733654     0.01031813    -0.02410915
Li     -4.00321591     6.45762213    -5.90659553     0.15419691     0.19080233     0.48070319
Li     -7.87439964     6.58806747    -9.90452740    -0.13807123    -0.07860504     0.15205928
Li     -7.83482321     6.60306183    -5.71625167    -0.56517662    -0.23035910    -0.52097941
Ti     -1.92029567     2.24471767    -3.98277647     0.01544241     0.08616984    -0.32734515
Ti     -5.86547526     6.74424703    -7.89137124    -1.01799670     0.23742557    -0.23860171
Ti     -7.84716985     4.48162995    -7.83666538     0.65676082    -0.54686970     1.15387009
Ti     -7.74872328     4.38220743    -3.64781264    -0.29913005    -0.13069097    -1.91103324
Ti     -3.71615479     4.34950694    -7.69774162    -2.10572850    -0.64088950     0.12259885
Ti     -3.95249521     4.37623522    -3.83797208    -0.83845932     0.44606680     0.20715073
Ti     -6.03011021     8.70545156    -2.07019367    -0.45907094     0.10860741    -0.30685995
Ni     -5.80138043     2.42885985    -8.07693273    -0.60480164    -0.27627374     0.52084995
Ni     -5.89545756     2.02183189    -3.99294698     0.11104066     0.40250811     1.69795748
Ni     -9.82385664     6.57005713    -7.90294632    -0.00326523     0.40845091     0.71124243
Ni     -9.87251406     6.46432849    -3.85353920     0.31207962     0.29208149    -1.08971442
Ni     -1.88315292     2.15703379    -7.98360738    -1.03766640    -0.49952109     0.39454863
Ni     -5.90416233     6.59447263    -3.95005840    -0.05523614     0.33628410    -0.29687376
Ni     -5.91554948     8.71839764    -5.95782044    -0.30445683    -0.57741381     0.24878515
Mo     -5.90528993     0.12004807   -10.23573549    -1.44272276    -0.63778451    -0.50193338
Mo     -9.79083049     8.69773650    -6.33771016     2.05559753    -1.72947692     1.86288239
O      -2.01132945     1.95479867    -2.01885791     1.02886894    -0.71402840    -0.12742204
O      -2.01439518     1.80672079    -5.97754905     0.70902435     0.06573289     0.06071389
O      -5.93197168     6.78482976    -1.97856718     0.37896355     0.08431828     0.34419199
O      -5.98052512     6.85154537    -5.95340373     0.59892770     0.10747853     0.26181964
O      -5.83447081     2.05008314   -10.09277694    -0.03261004    -0.31651030     0.43823476
O      -5.91140586     1.83214480    -5.71936204     0.50789029     0.50511352    -2.15823838
O      -9.74585074     6.98334015    -9.72675055    -0.37632061    -0.44796970    -0.13994492
O      -9.77747691     6.68412614    -6.01957555    -0.10808378     1.45977400    -0.07584343
O      -3.88911232     2.38418764    -3.91962411    -0.62510273    -0.31320119    -0.62905161
O      -3.77897669     2.39168774    -7.96851886    -0.64392217     1.33630215     0.21550823
O      -7.90233143     2.41771600    -3.90378985     0.85587891    -0.15040362    -1.07936992
O      -7.78798018     2.42214365    -7.93716164    -0.56297853    -0.06902762    -0.44703929
O      -3.86808881     6.45009713    -3.94420928    -0.09507278    -1.12364082    -0.21606976
O      -4.05086806     6.37526484    -7.87142999     1.32343584    -0.49091252    -0.30042650
O      -7.97648746     6.26441038    -3.85081774     0.57659286     1.34003980    -0.23415808
O      -7.88773510     6.41078301    -7.92693492     0.68084236     0.29671590    -0.37567115
O      -3.88468730     4.40298350    -2.07070964    -0.30751952     0.22819652     0.66077181
O      -4.11838772     4.45505213    -5.95811205     0.54817272    -0.05774646    -0.56159145
O      -7.95337361     4.39053078    -9.89699508    -0.40959305    -0.29886612     1.17658834
O      -8.09479436     4.45889039    -6.09264347     0.58268447    -0.53955456     0.29199206
O      -3.96923348     0.04194426    -9.90449745     0.03928451     0.08220899    -0.59844012
O      -3.99108633     0.01577667    -5.92392465    -0.14885784    -0.52051021    -0.31052380
O     -11.49388916     8.71168933    -6.05014243    -2.79975472    -0.14656647     0.04724426
O      -7.70131830     0.04507921    -9.92567562     0.60667653     0.47041516    -0.26166130
O      -2.08551382     4.11459408    -4.10973485     1.62980385    -0.62199161    -0.37104556
O      -9.76697294     4.58144398    -3.95725108     0.12620131    -0.03953035     0.24717931
O      -5.93953196     4.51198039    -4.01644659     0.80893995     0.93464471     0.06882165
O      -5.92041973     4.32513696    -8.15985947     0.47867327     0.17457336     0.74925035
O      -5.86430519     8.69280239    -3.93953462    -0.00534296     0.78747533     0.36808860
O      -5.75517127     8.59280455    -8.04225036    -0.14367420    -0.62894449     0.24702049
O      -9.89436404     8.35204878    -4.05270656     0.54514724     0.13787824     1.37271463
O      -5.70587492     0.55561750    -8.00439229    -0.33684189     1.05646891    -2.25794230
