# total energy = -630.66748637 eV

CRYSTAL
PRIMVEC
        0.00279571     0.02951795    -7.98606283
       -7.83802570     0.01298533    -3.99532603
       -3.92160916     8.71933433     0.00634407
PRIMCOORD
56 1
Li     -3.71871816     2.29333867    -1.93378296    -1.05447615     0.06642932    -0.10979087
Li     -4.02623348     2.51794231    -6.15201182    -0.25760108    -1.44964301     0.89730726
Li     -7.83305168     2.34779426    -9.92836057     0.08729498     0.03661054    -0.28799146
Li     -7.82259537     2.13878272    -5.80258689    -0.15584739     0.18255939    -0.67449160
Li     -4.06688947     6.34234682    -1.98115796     0.74214754     0.25693378     0.18771935
Li     -3.90253706     6.73378472    -5.90034734     0.02037456    -0.04650812    -0.14632685
Li     -7.91140012     6.37516334   -10.03781491    -0.04772528     0.33354171     0.40167272
Li     -7.78630112     6.44959612    -5.89572759    -0.12116260    -0.05296677    -0.05764756
Ti     -2.02641765     2.09195645    -4.19570292    -1.10166854     1.08567618     0.16033366
Ti     -5.92535965     6.65396620    -8.01156187     0.15090563    -0.62164255     0.13379729
Ti     -7.90010556     4.35260414    -7.74256939     0.14523174     0.02405500     0.54742792
Ti     -7.92543629     4.37438157    -3.82977570     0.23578291    -0.55263890     1.44707864
Ti     -3.80433651     4.46619834    -7.62484528    -0.48452524    -0.24888821    -1.72778906
Ti     -3.99104515     4.41135261    -3.76661873    -0.61196954    -1.49877098    -0.01194061
Ti     -5.80346761     8.68705996    -2.20568327    -0.01015768    -0.43575345     1.10228847
Ni     -5.92149097     2.43288078    -8.00209551     0.86498104    -0.35472160    -0.03879641
Ni     -6.00596972     2.16342572    -3.97153593     1.79951399     0.30820547    -0.10187065
Ni     -9.86244888     6.68331559    -7.93728000     0.70978428    -0.28878763     0.72198323
Ni     -9.75978798     6.67798307    -4.05384348    -0.22844431    -0.51583318     0.40712290
Ni     -1.94894090     2.08579099    -7.99363055     0.10900786    -0.69384797     0.40134168
Ni     -5.79936353     6.48613434    -3.95197664    -1.74948162    -0.31819523    -0.75106779
Ni     -5.79633933     8.58427666    -5.89704780    -0.45815440     2.81393471    -1.70788425
Mo     -5.87999464     0.13832943   -10.25813150     1.48630839    -0.40743569     0.45430104
Mo     -9.74829890     8.67150815    -6.30006206    -0.65983243    -0.19440747    -0.35702574
O      -1.94677104     1.83314267    -1.89908933     0.61734227     0.38149505    -0.04715479
O      -1.89982330     1.80436335    -6.08738126    -0.51315509     0.04698898     0.62739283
O      -5.96196327     6.75695159    -2.05984627     0.30836771    -0.47100907     0.44631341
O      -5.89004211     6.85784216    -5.95752771     0.48187144    -1.61777796     1.04346207
O      -5.93875056     1.99400598    -9.99618297     0.26625355     1.07616486    -0.31076336
O      -5.92942617     1.90230106    -5.88755967    -0.21046375    -0.02153572     0.34101111
O      -9.80955640     7.00702698    -9.71713225     0.22785121    -0.64261190    -0.63227597
O      -9.79425944     6.69788262    -6.06968796    -0.54787876     0.54258771     0.38534238
O      -4.03975287     2.23160072    -3.96111683     1.17160520     1.22695335    -0.44650606
O      -3.86427161     2.48462978    -8.05600323    -0.05320629     0.83843137     0.95384271
O      -7.83136482     2.35624440    -3.91514580    -1.29101472     0.47136411    -0.39120129
O      -7.89402498     2.36358248    -7.93555468    -0.04169780     0.63938001    -0.40380737
O      -3.89326149     6.31968808    -4.04297925     0.09999796     0.04865314     0.53475269
O      -3.97473070     6.38311555    -7.85021578     0.23671886     0.09256685    -0.73263234
O      -7.81249045     6.31693620    -3.99422894     0.33776045     0.80238303    -0.16588230
O      -7.82842579     6.36482397    -7.88101399    -1.04788210    -0.31639411    -0.53039581
O      -4.05920067     4.34650624    -2.01707181     0.50614498     0.24697229    -0.02341524
O      -4.02458865     4.29599899    -5.90303461     0.24763665     0.19751800     0.20371232
O      -7.85623258     4.46405809    -9.99855730    -0.23067132    -0.61316329    -0.12219639
O      -7.67477850     4.38072221    -5.97719995    -0.86550066    -0.13334197    -0.75796180
O      -4.00456644     0.03541449    -2.04220237    -0.86768341     0.13504234    -0.00103759
O      -8.03343130     8.62689398    -6.10046026     1.40375302    -0.14001132     0.20818547
O      -3.92579658     8.53957165    -2.32093002     0.06323046     0.28634568     0.99427143
O      -7.68848537     0.06080111   -10.04566819    -0.61006162    -0.22165079     0.55764777
O      -2.03943438     4.02247276    -3.96455354     0.39186864    -0.14445306    -0.18028926
O      -9.80581107     4.88481009    -3.90118428    -0.24686411    -1.16196898    -0.46050337
O      -5.99221784     4.32878218    -3.99526609     1.33617048     0.03466399    -0.03281120
O      -5.87018258     4.45436684    -8.04725535    -0.32879748    -0.57513885     0.29625145
O      -2.14414814     0.16782538    -4.03794648     0.45144488    -0.09231367    -0.36623473
O      -5.76468977     8.42681119    -8.01644933    -0.30102618     0.63243226    -0.09618082
O      -9.83901704     8.50001888    -4.08126548    -0.08750103     0.62393099    -1.03328917
O      -5.86226708     0.57496600    -8.00236724    -0.16930914     0.58537080    -0.86762775
