# total energy = -630.74324040 eV

CRYSTAL
PRIMVEC
        0.00285542     0.02004370    -7.95977623
       -7.82940539     0.00763210    -3.98158109
       -3.91729101     8.74642787     0.01461334
PRIMCOORD
56 1
Li     -3.87846707     2.23690935    -1.88170519     0.16254368     0.22342762    -0.24100291
Li     -4.02649600     2.20420172    -5.99367196     0.42218124     0.22490028     0.12344952
Li     -7.67288496     2.35373436   -10.09534622    -0.13277349     0.03833739     0.67946525
Li     -7.71368792     2.11058291    -5.92870710    -0.31510742     0.02225123     0.20858562
Li     -3.94394645     6.52057957    -1.94618684     0.11278027    -0.30644220     0.20221683
Li     -4.04987795     6.27526956    -5.83668993     0.70112931     0.29961320    -0.15034159
Li     -7.92837947     6.25497763    -9.88668067     0.53939069     0.14092108    -0.00901146
Li     -7.83543822     6.51432363    -5.77570431     0.04447637     0.02812242    -0.46561906
Ti     -1.91873276     2.22520885    -4.15456796     0.19710459     0.61113116     0.59118306
Ti     -5.89533327     6.64625045    -7.85528159    -0.35329560     0.88061773    -1.09031534
Ti     -7.79472250     4.41028307    -7.70777720    -1.45083740     0.36539042     0.57706891
Ti     -7.99051687     4.39490356    -3.86835971     0.08959993    -0.90027219     1.77216421
Ti     -3.89001264     4.39219666    -7.73691159     0.36249071     0.94497144    -0.54670049
Ti     -4.03516143     4.34717601    -3.78280419    -0.62410124     0.50126311     2.31635947
Ti     -6.02064796     8.72020883    -2.08108434     0.10309096    -1.97041105    -0.22551850
Ni     -5.77088863     2.47480778    -7.98542332    -1.95141455    -0.82079788    -0.00191289
Ni     -5.83868568     2.19635382    -4.00739716    -0.38529819    -0.25698990     0.40481522
Ni     -9.87422679     6.59735563    -7.86165080     0.84500176    -0.36771150     0.68206547
Ni     -9.78870273     6.70220316    -3.98514361     0.07801673    -0.57963724     0.25142394
Ni     -1.94549655     2.00846571    -7.95352798     0.31331815     0.12701926     0.37421982
Ni     -5.79820038     6.69908946    -3.92724117    -0.79690764    -0.93000342     0.58682126
Ni     -6.00434301     8.75626728    -5.89476267     0.84254681     0.24790719    -0.22221683
Mo     -9.82124454     8.68917946   -10.22561813    -1.80770151     0.57164233     2.51097784
Mo     -9.77360659     8.66474532    -6.39978817    -0.54503809     0.41079646     0.69230343
O      -1.85827248     1.76553969    -1.88675281    -0.05684586     1.65958205     0.35541913
O      -2.01687922     1.90430071    -5.99550381    -0.04187397    -0.53152237    -0.74146739
O      -5.90472328     6.66165839    -1.94083349     0.18710502     1.21840412    -0.04520201
O      -5.80777827     6.96718634    -5.80612407    -0.72607667    -0.71613667     0.03998588
O      -5.76258475     1.98639316   -10.06542710    -0.19112567    -0.35535581    -0.47405004
O      -5.84592677     1.94156184    -5.84341449    -0.06326704    -0.45786297    -0.81067403
O      -9.71300629     6.86093340    -9.66043472    -0.94454786     0.90126095    -0.89090986
O      -9.82601914     6.76591004    -5.96755189     0.42599976     0.00347422    -0.46730998
O      -3.85082451     2.45424207    -3.90559496     0.02965421    -1.30717508    -0.60173597
O      -3.88677045     2.51809690    -7.91876977     0.29483793    -1.37869859    -0.45945971
O      -7.87978803     2.32468091    -3.96603921    -0.02030352     0.65817947    -0.54314747
O      -7.78131160     2.49205701    -7.87814099     0.21226493    -0.31050150    -0.46515269
O      -3.91790861     6.29445724    -3.93560132     0.07646022     0.49473742    -0.17836505
O      -4.00990126     6.40548159    -7.87071525     0.49335371     0.51859473     0.12061000
O      -7.68166775     6.29910848    -3.92190884    -0.48925608     0.96583499     0.15085224
O      -7.94682696     6.40277345    -7.85113657     0.50971224    -0.70815355    -0.20339618
O      -3.70766724     4.37707534    -1.96621140    -0.55029833    -0.10139469    -1.56307820
O      -3.90373630     4.32028062    -5.97438377     0.10007943     0.27403096     1.02415592
O      -7.94144746     4.33978949    -9.98589089     0.62414839    -0.00764547    -0.94873399
O      -7.65561507     4.51930919    -5.93291273    -0.66647697    -0.49997264    -0.25978760
O      -7.83190124     8.69866717    -2.00867767    -1.13214727     0.35479809     0.35482293
O      -7.96063129     8.64383547    -6.08182439    -1.01200066     0.34829416    -0.21071446
O     -11.58354202     8.56994839    -6.00522115    -0.09512777     0.65157707     0.09399272
O      -7.71029692     0.09576548   -10.05090777     1.70376535    -0.34136658    -0.58257498
O      -1.90289677     4.11937782    -4.12271779    -0.35424189    -0.05251841     0.60024746
O      -9.86628746     4.85270071    -3.91345700     0.96266885     0.06166701    -0.47434214
O      -5.96847648     4.09025465    -3.92283583     1.41833452     0.06360222    -0.19345733
O      -5.86350118     4.55878510    -7.91053343     0.27686092    -0.81140765    -0.57120687
O      -2.06321420     0.25177749    -4.00686642     0.54568657     0.09729392     0.35551252
O      -6.07890368     8.47410827    -7.84732228     0.81005775     0.04976435    -0.65488529
O      -9.58541929     8.63916107    -4.04084083    -0.58766904     0.07172332    -0.85907246
O      -6.12828967     0.62879003    -8.10768221     1.78995105    -0.21908065     0.24918714
