# total energy = -630.50855066 eV

CRYSTAL
PRIMVEC
        0.00285542     0.02004370    -7.95977623
       -7.82940539     0.00763210    -3.98158109
       -3.91729101     8.74642787     0.01461334
PRIMCOORD
56 1
Li     -3.92655689     2.05797428    -1.76352982     0.05919539     0.26398625    -0.40523171
Li     -4.07640362     1.93122991    -5.84140064     0.56942299     0.33569524    -0.72684890
Li     -7.82722335     2.29029337    -9.71472318     0.29262956    -0.18878256    -1.41238777
Li     -7.94610297     2.33367449    -5.82412856     0.38762019    -0.18671764     0.03453474
Li     -4.05659706     6.43342358    -1.83512377     0.54339469     0.07776863    -0.12873864
Li     -3.69453289     6.43347005    -5.82998138    -0.35511380     0.19840811    -0.38251811
Li     -7.77274253     6.51796305    -9.95199133    -0.29877860     0.14275565     0.28312914
Li     -7.82793142     6.64232600    -5.82600610     0.09155100     0.01263025    -0.26008064
Ti     -2.06970581     2.25836168    -4.11105011    -0.50227318    -1.04544928     1.31690840
Ti     -5.93796960     6.65403018    -7.84631755     1.04589877     0.05935215    -1.32099607
Ti     -7.91472799     4.38132732    -7.66800393     0.84884409    -0.05215180     1.12683565
Ti     -7.89157447     4.41400093    -3.68900380     0.90100663     0.06650031    -0.35822662
Ti     -3.79998678     4.35405206    -7.65136526    -1.43060944    -0.07430544     0.44253265
Ti     -4.00660504     4.43537964    -3.65325774    -0.65494672    -0.72645026     0.43508074
Ti     -1.88821316     0.02430539    -2.11909235    -0.02411967    -1.13065509    -0.08907510
Ni     -5.91449312     2.31531479    -8.00764802    -0.18807756     1.25936816     0.19506382
Ni     -5.86425863     2.45435902    -3.98593318    -1.68266029    -1.27018865     0.46644309
Ni     -9.82424822     6.61909060    -7.91575341     0.88083375     0.07559864     1.48901711
Ni     -9.74970728     6.44559831    -4.20877361    -0.42440644    -0.69696042     1.69707345
Ni     -2.03011559     2.28221966    -7.93589747     0.73638281    -0.69412665     0.59225293
Ni     -5.80354808     6.57100371    -3.95323906    -0.71590522    -0.11568624     0.21048107
Ni     -5.83052217     8.65756920    -6.02757799     0.15225015     0.65032298     0.67942093
Mo     -5.81958660     0.07778938   -10.34471417    -1.32313259    -0.22257094     2.18420049
Mo     -9.83323381     8.73424072    -6.30858787     0.55749821    -1.17420713    -0.46128114
O      -1.96145803     1.91830652    -1.97342272    -0.52940362    -0.21304915     0.44737592
O      -1.97793847     1.79593058    -5.93446707     0.05352638    -0.30007925    -1.27324068
O      -5.87981577     6.74407669    -1.95403807    -0.29247428     0.70648994    -0.81821895
O      -5.86779053     6.77707002    -5.98764435     0.27321166     0.64115674     1.84907900
O      -5.82126163     2.00974310   -10.07251058    -0.40921581     0.25662916     0.26458815
O      -5.93859549     1.79960330    -5.84171301    -0.55295158     0.88118160     0.41080053
O      -9.66703276     7.01770616    -9.64455111    -0.46079587    -0.85406756    -1.32641405
O      -9.83109096     6.73037547    -6.05425843     0.22555824     0.94318403    -0.30903482
O      -4.05818359     2.29272045    -3.97389701     1.84459371     0.87664048    -0.03433883
O      -3.93525477     2.37719056    -7.83577094     0.09795607     0.57189688    -0.18330188
O      -7.84725701     2.47455486    -3.83820345    -0.27424889    -0.12960728    -0.53688077
O      -7.97374916     2.32662623    -7.87813084     0.82870551     1.17255597    -0.24121650
O      -3.84425822     6.32520641    -3.86228303    -0.30042062     0.34605773    -0.52669711
O      -4.00232547     6.33236141    -7.88172916     0.65342268    -0.85012523    -0.02178557
O      -7.78406337     6.40688662    -3.95870744    -0.03745072    -0.60067130    -0.21329340
O      -7.81252406     6.41134792    -7.86752756    -1.44121487    -1.36399308     0.07940061
O      -3.97594121     4.30392505    -1.88074304     0.13119871    -0.00036545    -1.03226409
O      -3.65588322     4.30980924    -5.88579269    -0.39795350     0.31269385    -0.35929903
O      -7.71659606     4.36346589    -9.89785816    -0.68688068     0.17286281     0.79836301
O      -7.90636161     4.24003972    -5.89255494     0.17322904     0.62282935    -1.50777043
O      -4.02383872     0.07333328    -9.95387769     1.64587717     0.35434417    -0.20089100
O      -4.06729780     0.02380338    -6.18568553    -1.18725338    -0.85315948     0.66024285
O      -3.90137049     8.61738374    -1.84354940     0.66197164     0.38286862    -0.89390639
O     -11.54343267     8.72940856   -10.14507981    -0.67978715     0.40578912     0.57448404
O      -2.04139908     4.11915475    -3.89277339     0.49628486     0.09321953    -0.36532423
O      -9.75873674     4.59041778    -4.08423627    -0.27062124    -0.00918332     0.10536176
O      -5.90276852     4.35659791    -4.14742299     0.56627025     1.01633810     0.49082135
O      -5.93144009     4.27129195    -7.89279328     0.32621816    -0.11635409     0.29768856
O      -1.87308895     0.12224832    -4.00872789    -0.29215964     0.02136751     0.25588919
O      -5.94995732     8.46768788    -7.98648748     0.17391088     0.26136724     0.31601235
O      -9.76924252     8.30146233    -4.03903162     0.60922190    -0.13043650    -2.68666274
O      -5.95594098     0.49333902    -8.08897272    -0.37536867     0.09996389     0.48414206
