# total energy = -631.04120029 eV

CRYSTAL
PRIMVEC
        0.00279571     0.02951795    -7.98606283
       -7.83802570     0.01298533    -3.99532603
       -3.92160916     8.71933433     0.00634407
PRIMCOORD
56 1
Li     -3.89912856     2.29514748    -2.05667680    -0.45699635    -0.22078201     0.70757461
Li     -3.85168574     2.14006860    -6.00180981    -0.30656327    -0.07474828    -0.27280238
Li     -7.79715938     2.31657414    -9.98667750    -0.16698173     0.02809180    -0.26238585
Li     -7.88146941     2.03914858    -5.92396969     0.40451953    -0.10007037     0.08757592
Li     -4.01296062     6.27524040    -1.87556556     0.22148723     0.13611683    -0.29200241
Li     -3.94185016     6.45732469    -5.78893878     0.18413939    -0.11464441    -0.63166407
Li     -7.93201504     6.44100827    -9.86304906     0.22250059     0.00294178    -0.34532993
Li     -7.91075939     6.49152445    -5.80553416     0.38803557     0.66448842    -0.15559633
Ti     -1.90833438     2.24919579    -4.06790117    -0.22251638    -0.00103142    -0.89979694
Ti     -5.93995637     6.78374587    -7.91984402     0.90142145    -0.53999743    -0.07074181
Ti     -7.83702820     4.41672389    -7.58191912     0.35425010     0.18944270    -1.39880808
Ti     -7.82735397     4.38305043    -3.75623644     1.28510546     0.51443228     0.71204047
Ti     -3.91809263     4.24922253    -7.66901050    -0.17570804     0.88000338    -1.79977605
Ti     -3.95881718     4.31213098    -3.73148240    -0.60662933     0.59227529    -0.56963676
Ti     -2.12084918     0.01367231    -2.29369500    -0.15346652    -0.99363987     1.22809118
Ni     -5.97483996     2.39133976    -8.09082465     1.53856050    -0.54284828    -0.17211123
Ni     -5.86817700     2.25039814    -4.09434969     0.19362012    -0.82302172    -0.13380592
Ni     -9.85419795     6.63724232    -7.85381778     0.55090981    -0.39784923     0.20675127
Ni     -9.80840712     6.29306217    -4.07912081     0.28387047     0.09033594     0.44748873
Ni     -1.80332121     2.30118941    -7.98455175    -1.66417967    -0.42986005     0.30287452
Ni     -5.85518873     6.49276787    -3.92295484    -0.17011130     0.29929734    -0.14270526
Ni     -5.83529070     8.67303929    -5.99721386     0.02974556     0.87524805     1.67722424
Mo     -9.87902625     8.74154451   -10.28427750    -0.22442859    -0.12282796     0.85960938
Mo     -5.87599932     0.04519192    -6.36424210    -0.53094729    -1.28151010    -0.42165766
O      -1.96827720     1.98011151    -2.12665203     0.21509551    -1.15208367     1.00504226
O      -1.90753292     1.83192448    -6.00072395     0.05178279    -0.19609662    -0.57734491
O      -5.91754053     6.72890312    -1.98106019     0.20705250     1.17066983     0.42354340
O      -5.83346889     6.85341422    -5.88721757    -0.14295878    -0.74461152    -0.40826783
O      -5.95711265     1.97496446   -10.08001088     1.09428680     1.12453450    -0.20715755
O      -5.87714736     1.98681568    -6.02063513    -0.00137398     0.48799433     0.07305719
O      -9.81133466     6.94520685    -9.77558496     0.17285910    -0.84619085     0.10183593
O      -9.79622022     6.76899083    -5.93020387    -0.99281077     0.46126779    -0.64618412
O      -3.82431187     2.39670663    -4.09733285    -0.88789167    -1.14931229     0.56392628
O      -4.01770686     2.39191857    -7.97459311     0.53384976    -0.31138908    -0.49704212
O      -7.77729769     2.39576218    -4.00774061    -0.25740958     0.53140851    -0.11710987
O      -7.83125353     2.43681736    -8.07260417    -0.00061987     0.67226277     0.99334942
O      -3.84330907     6.23500116    -3.95644415    -0.57751375     0.61687586     0.60758384
O      -3.98075210     6.22249430    -7.98954452    -0.12183862     0.57946425     0.53334675
O      -7.79131004     6.48370371    -3.93957569    -0.69106472    -1.56899183     0.33850386
O      -7.87193552     6.41849358    -7.88290090     0.19465197    -0.48055082    -0.08314527
O      -4.22376677     4.27041789    -2.00629081     0.86263970    -0.02576137     0.23296223
O      -3.90862119     4.25817091    -5.97119246     0.13247210     0.46398285     1.84398089
O      -7.76624159     4.46486505    -9.96074454    -0.58912471     0.03031859    -0.65819838
O      -8.02913244     4.62278481    -5.87151894     0.38410601    -0.70547950    -0.07198598
O      -7.91174874     8.70139918    -2.08403826     1.36288682     0.46040424    -0.13446538
O      -8.04314093     8.61263462    -6.05400929     0.51003340     0.61838618     0.34420323
O      -7.68875330     0.07845579    -5.95884776    -0.66336159    -0.50759664    -0.46671214
O      -7.67042298     0.03881731    -9.91990321    -0.95927570    -0.26306908    -0.57672997
O      -1.99140350     4.09756506    -3.92060754     0.97672127     0.85218258    -0.17787863
O      -1.93733326     4.31809089    -7.96856128    -0.31159603    -0.10264827    -0.24572184
O      -5.85203995     4.10183845    -4.17712759    -0.90644296     0.65601622     0.14999989
O      -5.92705518     4.35446009    -7.93812346    -0.76855775    -0.17050638     0.59517182
O      -1.72722392     0.17723803    -4.03575963    -0.86345779     0.12420212    -0.87924526
O      -5.84933364     8.59879435    -7.81364850    -0.08993409    -0.29306889    -1.40576955
O      -5.92491107     0.28807399    -4.06556256     0.27547451     0.18880323    -0.60681049
O      -5.86298198     0.52968731    -8.18461480    -0.01264619     0.15749234     1.21630864
