# total energy = -630.64745798 eV

CRYSTAL
PRIMVEC
        0.00279571     0.02951795    -7.98606283
       -7.83802570     0.01298533    -3.99532603
       -3.92160916     8.71933433     0.00634407
PRIMCOORD
56 1
Li     -3.75192701     2.32654803    -1.93125867    -0.69817338    -0.08089896    -0.25877809
Li     -3.83036883     2.42992650    -5.85395165    -0.67026490     0.00459321    -0.41046000
Li     -7.89890729     2.39643534   -10.15997927     0.16285842     0.05439035     0.87692278
Li     -7.73426692     2.22515663    -6.00510909    -0.06912588    -0.04214374     0.49857384
Li     -3.98009656     6.35129309    -2.00068377     0.11230147     0.38692050     0.47203153
Li     -3.96812322     6.36452297    -5.85665176     0.30361495     0.11211319     0.16241300
Li     -7.83913307     6.31872831    -9.90159762    -0.89921771     0.15725256    -0.02232422
Li     -7.91183265     6.53111528    -5.74794727     0.30933291    -0.03490091    -0.52700714
Ti     -1.89418249     2.14035811    -4.00297975     0.14529170    -0.07128713     0.02189835
Ti     -5.96716258     6.72172200    -7.89762771     0.93801860    -0.16285942     0.15585668
Ti     -7.78743719     4.35571898    -7.78751029     0.61831902    -0.33248379     0.90207157
Ti     -7.72783642     4.44700065    -3.84189555    -0.95174873     0.32068165     1.43244967
Ti     -3.73287364     4.40355922    -7.78770293    -0.47927183     0.32847683     1.11535251
Ti     -4.00416268     4.34665266    -3.71234248     0.83373995     0.17546204    -4.79343165
Ti     -6.19011313     8.62071986    -2.06475590    -0.92717040    -0.33399642    -0.94611909
Ni     -5.79797757     2.35061442    -8.07574004    -0.34108178    -0.11409274    -0.24722457
Ni     -5.84996096     2.23432759    -3.99727428     0.16185883    -0.23396234    -0.84567311
Ni     -9.79179057     6.45429463    -7.84854045    -0.91774022     0.38450093     0.36751372
Ni     -9.82316418     6.63379405    -4.02118852     0.32737592    -0.05951204     0.26201790
Ni     -2.00848595     2.25957018    -7.91650294     0.69375587    -0.39025140    -0.47273241
Ni     -5.91965197     6.56738006    -3.93909344     0.38948278     0.50351722     0.24609059
Ni     -5.94184820     8.69027958    -6.00041942    -0.00547166    -0.95056538     0.99548408
Mo    -10.02020650     8.73057566   -10.27231878    -0.13714889    -0.35212938     1.61263467
Mo     -9.74203986     8.73588556    -6.39445057    -0.38017933    -0.48059668    -0.03256484
O      -1.90376738     1.79691797    -2.04507960    -0.04063757     0.63432164     0.58761369
O      -2.05689950     1.83942119    -5.99301781     0.62234618    -0.30418245    -0.31309599
O      -6.05381042     6.68176565    -1.91359249     1.29613544     0.40215015    -0.32938306
O      -5.80721717     6.76348461    -5.82358919    -0.95639535     0.80925765    -1.20151293
O      -5.79989546     1.97839202   -10.12679185    -0.73558762    -0.01217296     0.37182754
O      -5.75212637     2.01856371    -5.88345473    -0.25783144    -0.71108375    -0.72167398
O      -9.91655673     6.93631984    -9.73002588     0.54998418    -0.27332860    -0.19338228
O      -9.79153917     6.72347794    -5.95223852    -0.03639650     0.97665489    -0.66262259
O      -3.89652730     2.35961289    -3.89420812     0.50963804    -0.03996008    -0.56151879
O      -3.94167678     2.46830687    -8.06751059     1.31361443     0.35524890     0.58595812
O      -7.87533557     2.56218304    -3.98872599    -0.49719553    -1.76311410    -0.57873758
O      -7.69567457     2.37270960    -8.02999065    -1.07369854     0.44513348     0.08450546
O      -3.96738083     6.30051928    -3.84731609     0.69512588     0.10306693    -0.66005960
O      -4.06460790     6.37051407    -8.06986631     0.62472802     0.10038955     0.69969035
O      -7.80849668     6.42911652    -3.86110108    -0.19864627    -0.27798540    -0.69007205
O      -7.85488466     6.36017831    -7.87010411    -0.16725405    -0.61278618    -0.28171642
O      -3.87702729     4.38442821    -2.06906203     0.59125550    -0.19124285     4.83595499
O      -3.61037504     4.49146854    -6.00230009    -0.63999770    -0.66322082    -0.54945177
O      -7.91787370     4.34013940    -9.99040362     0.35092147     0.44177246    -0.40899628
O      -7.90271402     4.36484950    -5.98675292     0.18782465     0.01512787    -1.22786799
O      -8.00310411     8.54697176    -2.16859764     1.45891960     0.73260995     0.53974868
O      -7.95271926     8.57554665    -6.00941160     0.25672941     0.21372014    -0.11540869
O     -11.49705617     8.72427750    -6.04716035    -0.09954584    -0.12295100     0.01886466
O      -3.96730636     8.63168522    -6.18123958     0.38361855     0.90589292    -0.09861856
O      -1.91123746     4.05238221    -3.98737348    -0.01531999    -0.39424252    -0.00485597
O      -9.68683909     4.79346087    -4.01655327    -0.76077380    -0.35084468    -0.66378468
O      -5.85144118     4.28903348    -4.14242363    -0.06214949    -0.11512056     0.30044464
O      -5.72074641     4.32509621    -8.03178976    -1.77688343    -0.21402461     0.30310133
O      -1.85503325     0.10565279    -3.99374020    -0.27632978     0.55616616     0.53224616
O      -6.06574424     8.54381393    -8.00271873     0.37602623    -0.23464739    -0.44737718
O      -5.81958997     0.10838219    -4.06073903    -0.40379353    -0.15248401    -0.58665125
O      -5.85926351     0.47749060    -8.23171483     0.24835660     0.62125302     0.87283395
