# total energy = -631.08896720 eV

CRYSTAL
PRIMVEC
        0.00279571     0.02951795    -7.98606283
       -7.83802570     0.01298533    -3.99532603
       -3.92160916     8.71933433     0.00634407
PRIMCOORD
56 1
Li     -3.86702446     2.16195167    -1.94137958    -0.41059553     0.28868780     0.05226834
Li     -4.03750742     2.34578094    -6.05594404     0.17567419    -0.53883868     0.45121455
Li     -7.83730561     2.31247920    -9.98195198     0.04667543    -0.14638469     0.09034068
Li     -7.87566760     2.48241457    -5.95506829     0.40854364    -0.17842879    -0.03805909
Li     -3.83437318     6.19309678    -2.05407969     0.12550000     0.24238220     0.62441883
Li     -3.84828107     6.61273566    -5.85150814    -0.83641527     0.06802848     0.06627142
Li     -7.93113399     6.58015831   -10.06076960     0.25341467    -0.13656029     0.80062908
Li     -7.72407162     6.38529635    -6.06904714    -0.46927682    -0.11512440     0.62113291
Ti     -2.08602717     2.24955277    -3.98022869    -0.31257772    -0.11815404    -0.99307588
Ti     -5.85794316     6.69333632    -8.11099727    -0.29810202    -0.78840127     0.29945963
Ti     -7.86206253     4.32672176    -7.91239366    -0.16140390     0.83076587    -0.90811729
Ti     -8.02197446     4.37615092    -3.79912266     0.93646757    -0.07709794     1.68239251
Ti     -3.85525510     4.32039286    -7.72200924    -1.38598418     0.30276452    -0.45501914
Ti     -4.19918746     4.39865975    -3.86104867     1.46810561    -0.27212474     1.94004530
Ti     -5.57096113     8.72012066    -2.07836378    -0.52503317    -0.30014529    -0.75195208
Ni     -5.83726408     2.43317296    -8.02113545     0.11177185    -1.34738542    -0.73504994
Ni     -6.00751796     2.09698000    -3.99788060     0.82488524    -0.60140248     0.33864535
Ni     -9.76034747     6.68362413    -7.85279534    -0.62691340    -1.16106528    -0.89664193
Ni     -9.86832579     6.53734747    -3.81485741     0.25217857     0.71276162    -1.03911627
Ni     -1.88901337     2.07289492    -7.97702737    -0.51111931    -0.32984703     0.72298810
Ni     -5.91525174     6.60464328    -4.00427538    -0.31159183    -0.23458105     0.62035858
Ni     -1.94211518     0.03275114    -5.84539058     0.22425159    -1.46361571    -0.98351611
Mo     -5.85556247     0.04460985   -10.21432247    -0.69165557     0.46792928    -0.48666775
Mo     -9.68207153     8.66571514    -6.36323868    -0.66916281    -0.01814313     0.30775316
O      -1.90116731     1.91022255    -1.90962025     0.04671429     0.11624378    -0.69233005
O      -1.97527573     1.85295425    -6.02907931     0.02457520     0.24056608     0.50298557
O      -5.89990865     6.73999584    -2.02422246     0.39593609     0.32055272    -0.10904318
O      -5.88316406     6.87911181    -5.81724634    -0.03505611     0.58658435    -0.73886553
O      -5.83372134     2.04282018   -10.02902498    -0.68001718    -0.34427837    -0.87290117
O      -6.04441153     1.83051150    -5.84819667     0.94116176     0.96136266    -0.61188940
O      -9.87750547     6.85891547    -9.77031687     1.38907987    -0.08309068     0.06908655
O      -9.75703792     6.76950378    -5.97654343    -0.12039225     0.38163615    -0.18533874
O      -3.99797333     2.37640179    -3.96162089    -0.06195495    -0.36931148    -0.40334836
O      -3.82829035     2.39234413    -8.02148168    -0.24871942     0.72920823     0.54296441
O      -7.87274955     2.36693521    -3.91581492    -0.19165162     0.76627896    -0.63880565
O      -7.77322219     2.46390144    -8.07071770    -0.62406676    -1.13090005     0.48550122
O      -3.82321871     6.31700568    -3.92151593    -0.25470885     0.23390952    -0.23581704
O      -3.97699105     6.38131155    -7.86159557    -0.04309958    -0.42358070    -0.41986717
O      -7.92618442     6.35061972    -3.88837229     0.01609871    -0.03195737    -0.86735175
O      -7.83775957     6.27890853    -8.08248956     0.26146014     1.47327600     0.56356870
O      -3.99975713     4.31066831    -2.04649882     0.30721957    -0.03185172    -1.02323578
O      -3.99524219     4.24414198    -5.94701407     0.08853719     0.17951520    -0.65327289
O      -7.96664375     4.37810350    -9.98339153    -0.18070147     0.03384436    -1.70197286
O      -7.87734364     4.41175790    -6.18092013    -0.15616976    -0.01325112     2.30548773
O      -4.04552854     0.02519565    -2.11047321    -0.36154954    -0.50549709     0.26376479
O      -7.97471098     8.68019342    -6.18130300     2.38848845     0.21613511     0.65306607
O     -11.61202431     8.68396008    -6.18428712    -1.51420873    -0.51705336     0.14174744
O     -11.63844103     8.65476856    -9.94727550    -0.10046860     0.82038234    -0.00019159
O      -2.08962732     4.07007211    -4.10416125     0.95107759    -0.02297266     0.21393402
O      -9.87713498     4.66217078    -4.06123448     0.29081380     0.09141836    -0.08849729
O      -6.02182714     4.53621758    -3.99940698    -1.10013941     0.10102508    -0.59511024
O      -5.86619428     4.35323115    -8.14023267     0.45895144     0.01796372     0.57017379
O      -2.09427305     0.21410170    -3.95142112     0.46148028     0.05746300     0.55477109
O      -5.87641035     8.49516242    -8.12670391     0.17542842     0.19335202     0.48404359
O      -9.91334263     8.69284126    -4.11218206     0.31175371    -0.28618103     0.80520999
O      -5.78523128     0.55638312    -8.12280543    -0.47699913     0.52070524     0.39678564
