# total energy = -631.28038709 eV

CRYSTAL
PRIMVEC
        0.00279571     0.02951795    -7.98606283
       -7.83802570     0.01298533    -3.99532603
       -3.92160916     8.71933433     0.00634407
PRIMCOORD
56 1
Li     -3.99419032     2.21906637    -2.07371022    -0.12130466     0.32887999     0.53614948
Li     -4.00167202     2.19529037    -6.00938627     0.42081142    -0.04598022     0.29634811
Li     -7.80084265     2.32559799    -9.93878623     0.06360992    -0.42356461    -0.19012383
Li     -7.76948322     2.03497227    -5.81135835    -0.71664996     0.27016217    -0.01555199
Li     -3.74783801     6.50681085    -2.09675708    -0.33736305     0.09883492     0.55677410
Li     -3.89940394     6.58322560    -5.77598216    -0.33827339    -0.09119489    -0.34635544
Li     -7.77443121     6.51100727    -9.90021155    -0.26654368    -0.11819483     0.08832720
Li     -7.70782836     6.27445079    -5.83666186    -0.70729878     0.56273684    -0.18146219
Ti     -1.90469037     2.43543589    -4.03068265    -0.86747329    -0.71494605    -0.43680001
Ti     -5.68682759     6.73038763    -7.98829226    -1.80812802     1.33860694     0.24667693
Ti     -7.68717038     4.40999241    -7.62980359     0.10113992     0.14008323    -0.84217096
Ti     -7.87960892     4.37449654    -3.62007968    -0.03891402    -0.96767028    -1.16148094
Ti     -3.96624802     4.35721358    -7.70929865     0.70233679    -0.67718008    -0.16627951
Ti     -4.08269346     4.42537292    -3.78260631    -0.37782687    -0.61984296     0.05611209
Ti     -2.22702511     0.03255560    -2.22680973     0.53319429    -0.61520863     0.50506509
Ni     -5.89753521     2.14391661    -7.94405504     0.28686942    -0.33297993     1.28825514
Ni     -5.86191160     2.26938787    -4.06291259    -0.44664720     0.70459322     0.14530925
Ni     -9.70645736     6.39038524    -8.10246466    -0.46359834    -1.62115682     0.93267018
Ni     -9.78391124     6.48191188    -4.06017582     0.04110791     0.24525651     0.85227496
Ni     -2.04280907     2.23074989    -7.99829864     0.93708505    -0.39596020     0.41962370
Ni     -5.95976271     6.66462944    -3.95359967     0.77549676    -0.12853498    -0.11966998
Ni     -1.99408324     0.07724379    -5.95367633    -0.17081932    -0.69056375    -0.06970235
Mo     -9.87719240     8.66579786   -10.32622073    -2.21001632     0.79673041     0.61344753
Mo     -5.86754144     0.08933071    -6.31762999     1.14941693    -1.02507718    -1.82807420
O      -2.03258022     1.89628396    -1.97950158     0.35537295     0.70333433    -0.52970316
O      -1.94803049     1.87485067    -5.89883483     0.02055121     1.18111869    -0.69581936
O      -5.84693542     6.83383618    -2.00324639    -0.05450325    -0.28438103    -0.25422684
O      -5.93468354     6.88461138    -5.86980994     0.57938107     0.83611557    -0.31468970
O      -5.89206648     1.73933692    -9.66529101     0.45789478     0.20301782    -1.54493058
O      -5.91127453     2.05369594    -6.08854671    -0.21078498    -0.46201183     0.37870533
O      -9.79877424     6.78191600   -10.17171819    -0.03467526    -0.86189895     0.45572174
O      -9.74993963     6.85860235    -5.84137719     0.44113514    -0.20624380    -0.33348002
O      -3.95841368     2.44363381    -4.08666837     1.16232897     0.28199240     0.57619504
O      -3.99339116     2.36861533    -7.92375703    -0.05017754     0.68190368    -0.32160487
O      -7.83684312     2.35324754    -3.91397953    -0.04629520     0.65415623    -0.09011421
O      -7.78765130     2.34419123    -7.99228047    -0.96795847     0.86832480     0.72374769
O      -3.84658691     6.27974836    -3.91965952    -0.37295327     1.14664866    -0.75682625
O      -3.88509895     6.41877001    -7.91363544     1.15017002    -0.42624391    -0.55281265
O      -7.87131867     6.32809696    -3.92651724     0.21434355    -0.41657815     0.18954921
O      -7.77322775     6.29472803    -7.87989306    -0.33964814     0.41761860    -0.48226691
O      -3.90995005     4.26876770    -2.04234855     0.01969257     0.13217320     0.75278585
O      -4.01210498     4.40117114    -5.96406121     0.27300560     0.05743954    -0.21321510
O      -7.80964475     4.33086646    -9.86202926     0.00461995     0.12080489     0.09939700
O      -7.88622381     4.33322167    -5.89830002    -0.01896652    -0.20012660    -0.22765368
O      -7.96999610     8.59216475    -2.11502249     1.08651294     0.21162825     0.41676919
O      -4.05359641     0.13176524    -6.05073901     0.31371357     0.00207939    -0.18841577
O     -11.55759897     8.65993343    -5.99575521    -0.69123876     0.84863126    -0.10055570
O     -11.70055739     8.74056294   -10.12493680     0.84398084    -0.58446145     0.02269070
O      -9.80465667     4.45037852    -8.12467596     0.74323488    -1.44810056     0.53253584
O      -2.00402480     4.14856405    -7.93768563     0.26380261     0.20923098    -0.09390287
O      -5.94613925     4.18390060    -4.04545901    -0.44826811    -0.42003537     0.28061623
O      -5.83638918     4.68724383    -8.01024538     0.08960572     0.01871437     0.11724767
O      -2.06822409     0.39287737    -4.04494627     0.44033836    -0.25540935     0.47858177
O      -5.79538895     8.62481961    -8.05731038    -0.39014485    -0.34206134     0.30699592
O      -5.70717402     0.42552808    -4.06189664    -0.77509959    -0.06775259    -0.48988734
O      -9.77716349     8.14967055    -8.12081650     0.09377174     1.32318293     0.53440677
