# total energy = -630.79523745 eV

CRYSTAL
PRIMVEC
        0.00279571     0.02951795    -7.98606283
       -7.83802570     0.01298533    -3.99532603
       -3.92160916     8.71933433     0.00634407
PRIMCOORD
56 1
Li     -4.09235067     2.11548394    -1.90575206     0.30026561     0.54376305    -0.32559842
Li     -3.97832513     2.19729795    -5.99660309     0.34855565     0.04755185     0.21328513
Li     -8.00461979     2.35452223   -10.03555952     0.96137724     0.27723474     0.45053602
Li     -7.82556381     2.28265708    -5.91222204    -0.14368237     0.14754482    -0.38515374
Li     -3.99440607     6.55407592    -1.91565615     0.55899856    -0.01815163    -0.54903608
Li     -3.73515483     6.10924630    -5.91800620    -0.43620878     0.38584517     0.12819986
Li     -7.88720196     6.51277042    -9.93572003    -0.47499148    -0.28988856    -0.27102488
Li     -7.88219649     6.40442662    -5.95345788     0.39427652     0.62894116     0.57063265
Ti     -1.87659724     2.05914575    -3.99850512    -0.49759100     0.73348072    -0.10189539
Ti     -5.77424899     6.57361590    -7.97539299     0.52966731    -0.15613932     0.70565749
Ti     -7.72333448     4.50840894    -7.76067421    -0.57272318    -2.95518509    -0.69720888
Ti     -7.68341047     4.29395483    -3.70233599     0.01736093     2.32133272    -1.44501776
Ti     -3.72203381     4.26099753    -7.80416258     0.60658737    -0.17483607    -0.31121194
Ti     -3.79290523     4.35567080    -3.71747172    -0.36928312    -0.61950212    -0.17265770
Ti     -6.30057726     8.67948880    -1.99500275     1.55767516     0.03692174    -0.47122708
Ni     -5.82707880     2.38399715    -7.96920141    -0.14420287     0.29469725    -0.88169218
Ni     -5.93985609     2.17622043    -4.08277434     0.53291849    -0.11358718     1.18377082
Ni     -9.73670564     6.64244097    -7.86739798    -0.49034360     0.05558915    -0.99533723
Ni     -9.72798122     6.44824078    -4.08423342    -0.10127395     0.43701890     0.36850598
Ni     -1.82387234     2.06542946    -8.05706912    -1.33198853    -0.07130807     0.65224849
Ni     -5.90466832     6.61894007    -4.02352281     0.32696128    -0.01093155     0.79742306
Ni     -5.98130198     8.72971494    -6.04820253    -0.37046801    -0.32336372     0.90881520
Mo     -6.20815295     0.10775114   -10.22906636     0.40979457    -0.27737429    -0.01803925
Mo     -5.92987189     0.09528886    -6.36219594     1.23261114    -0.32093299    -0.39770586
O      -1.87444313     1.84625719    -1.99794449    -0.10130652    -0.31512609     0.29137795
O      -1.87096487     1.87302800    -5.98406408    -1.43509356    -0.52193698    -0.59888508
O      -5.88474757     6.74679080    -2.03062082    -0.32972346     0.53080016     0.08366585
O      -5.96058342     6.81777767    -5.90061779     0.17910366     0.67807257    -1.31074694
O      -6.04009912     2.05487122   -10.15060118     0.54873591    -0.78413451     0.03067732
O      -5.95167051     2.04602556    -5.95540411     0.50614863    -0.02711883     0.81856751
O      -9.84415619     6.88897492    -9.76797351     0.38773701     1.16495111     0.12695416
O      -9.70543409     6.93156496    -6.03555480    -0.41860694    -1.29497412     0.51545190
O      -3.86568021     2.36018153    -3.86824561    -0.43685741    -0.22576011    -1.13369940
O      -3.81440155     2.33191383    -7.98954940    -0.03189655     0.52792654     0.02273622
O      -7.84052771     2.42300325    -3.98182408     0.41461024    -0.70465991    -0.76397538
O      -7.75745605     2.47853385    -8.02593825    -0.14229648    -0.04753924     0.41264490
O      -3.72012734     6.29333743    -4.02615379    -0.40301677     0.29970954     0.89454334
O      -3.91383088     6.36943177    -7.92171588     0.51855488    -0.54971581    -0.40506373
O      -7.84841254     6.41720971    -3.93386220     0.07505777    -0.88838324    -0.09546211
O      -7.78876379     6.35278261    -7.97733327    -0.21564870     1.01100165    -0.41569314
O      -3.99879142     4.22937725    -1.99374946     0.32382615     0.47132269     1.19341079
O      -3.98757883     4.22411614    -6.04557238     0.36022836     0.14229666     0.44020663
O      -8.09344506     4.32427383   -10.01367294     0.35400291     0.50284830     1.73213396
O      -7.84996667     4.56009425    -6.03331995     0.12156461    -1.00874420     0.87294805
O      -4.11954716     0.16597598    -9.92302039    -0.38040836    -0.39259027    -0.21157854
O      -4.05886379     0.15784593    -6.03317886    -0.14744724    -0.12424121    -0.24573493
O     -11.60564238     8.71888427    -6.10696488    -0.10481166    -0.02329127     0.46980383
O      -0.11702984     0.06237075    -6.09427122     0.32424931    -0.17358453     0.07031755
O      -1.92523212     4.04335938    -3.88518451     0.55347465    -0.25261253    -0.36654508
O      -9.70015838     4.62979168    -4.07207181    -0.47589466    -0.23096441    -0.17296720
O      -5.82375538     4.70126222    -3.79705753    -0.40435572     0.21870021    -1.13809596
O      -5.71787827     4.46718091    -8.01970101    -2.01006732    -0.24057740     0.05468974
O      -2.03634090     0.04716393    -3.96840160     0.18287811     0.54381748     0.44385672
O      -5.85837498     8.39880847    -8.08143181    -0.23029730     0.88171864     0.05919285
O      -9.83615255     8.31458332    -3.92769347    -0.01592239     0.31395235    -0.49285009
O      -5.89356085     0.53105896    -8.15166170    -0.28496935     0.39375671    -0.25622757
