# total energy = -630.77564466 eV

CRYSTAL
PRIMVEC
        0.00279571     0.02951795    -7.98606283
       -7.83802570     0.01298533    -3.99532603
       -3.92160916     8.71933433     0.00634407
PRIMCOORD
56 1
Li     -4.03646215     2.10019086    -1.86120744     0.35430787     0.44497133    -0.61272755
Li     -4.08529799     2.23692821    -6.03593953     0.52737822     0.35365401     0.25376527
Li     -7.90080903     2.27170173    -9.92630409     0.24648125     0.23280869    -0.38673860
Li     -7.92084799     1.99644171    -5.87536776     0.66468868     0.35550025    -0.07531369
Li     -3.85569826     6.45921465    -2.11654674    -0.23227155     0.45859545     0.54894045
Li     -3.61077336     6.28606199    -5.97953097    -1.14823902     0.06994676     0.35405014
Li     -7.93999308     6.56864552   -10.07677630     0.27144206    -0.34947838     0.47539525
Li     -7.74691093     6.50586494    -5.86360641    -0.13356913    -0.14220290    -0.80447948
Ti     -1.97239824     2.26069496    -4.06989502    -0.99260007    -2.40534075    -0.22185387
Ti     -5.73659384     6.58308111    -7.99367109    -0.89457979    -0.56911459     0.32145364
Ti     -7.83941769     4.31353890    -7.70559120     0.82271424     2.22967258     1.55934873
Ti     -7.84360079     4.34192083    -3.78872480     1.28180538    -0.68805537    -1.00068099
Ti     -3.70034988     4.37649259    -7.82474169    -1.06147849    -0.68963753     0.30918575
Ti     -3.91921197     4.42189860    -3.74374477    -1.81540369    -0.76530669    -0.24414828
Ti     -2.22412091     0.04056256    -1.94536260    -0.56903678     0.61043781    -1.33653646
Ni     -5.85227158     2.42890156    -8.05196107    -0.02911069    -0.98823376     0.38318894
Ni     -6.01451351     2.24056066    -4.00624231     1.57918191     0.14097452     0.08351314
Ni     -9.77668429     6.60026663    -7.88795570    -0.36388681    -0.07149761    -1.02101987
Ni     -9.74403887     6.50609260    -4.10476490    -0.16599587    -0.29059530    -0.29396183
Ni     -1.96062435     2.12805536    -7.91402266     0.28145587    -0.05699918    -0.30764941
Ni     -5.82806007     6.67707555    -3.97670280    -1.01776060    -1.06956552    -0.73835337
Ni     -6.00101108     8.68231541    -5.95426117     1.57844683    -0.34375678     0.06472615
Mo     -6.07654729     0.10882836   -10.21269287    -0.80880781     0.42891272    -0.67367527
Mo     -9.69122310     8.65136677    -6.35910938    -1.62208469     0.38123998    -0.40862242
O      -1.96320068     1.95950518    -1.82360891    -0.04035436    -0.54052357    -0.71816548
O      -1.95803205     1.88987024    -5.99990363    -0.65129342    -0.67274092     0.35824751
O      -5.90663906     6.85785619    -2.04126722    -0.05146867    -0.70959719    -0.01392835
O      -5.86589053     6.81572910    -6.02325710    -0.26363548     0.37253507     0.36656465
O      -5.94537979     2.07380344   -10.03963147    -0.18423783    -0.46664389    -0.69342488
O      -5.90064790     1.81303536    -5.86526569     0.07802000     0.56674803    -0.02317657
O      -9.79470181     7.03470027    -9.70695074     0.56642890    -0.69458734    -0.04684884
O      -9.70207744     6.70402066    -6.10085682     0.06451824    -0.20617712     1.08062111
O      -4.00574114     2.47374024    -4.04011194     0.55868309    -0.44988313     0.51643533
O      -3.85699215     2.47396694    -8.03534034    -0.47147204    -0.21701758     0.56484819
O      -7.84672846     2.31369487    -3.94597410    -0.83923541     0.05103326     0.07152812
O      -7.83942061     2.47395825    -7.97437982    -0.36766496    -2.11566188    -0.49332689
O      -4.01651767     6.33489836    -4.05885905     1.79113710     0.38450538     0.35419524
O      -3.87712376     6.41142293    -7.98377908     0.28748493    -0.43601823    -0.11354395
O      -7.80327465     6.23169572    -4.09639739    -0.15649369     1.72706594     1.08491350
O      -7.93690671     6.26171081    -8.00098798     0.95957699     0.10470095     0.12179789
O      -4.11277787     4.49309246    -1.97965752     0.51340058    -0.04418001    -0.25873609
O      -3.89332574     4.37600222    -6.05171566     0.48900503     0.30398692    -0.47452682
O      -7.83770507     4.29677772   -10.03575664    -0.40296196     0.13532776     1.05151936
O      -7.89103722     4.12852563    -5.93786696    -0.04024794     0.49756084    -1.49538275
O      -4.06429891     0.21709603    -9.98521799     0.54893845    -0.69782201    -0.05834833
O      -7.86375777     8.65382250    -6.06483814    -0.00933616     0.04470409    -0.01234821
O     -11.46454021     8.56874252    -6.05155315    -0.54210498     0.10666783    -0.21684402
O      -7.83529460     0.04551292    -9.88359460     0.20977811     0.40648391    -0.72870105
O      -2.00380237     4.09720569    -4.08828868     0.13498442     0.94418498     0.40027164
O      -9.74313805     4.51990678    -4.23375881     0.03675104     1.07566672     0.66222592
O      -5.89168511     4.37326644    -4.16697712     0.12681744    -0.21172134     0.59146767
O      -5.88603562     4.34766239    -7.90981352     0.21680046     0.56310722    -0.42310392
O      -1.96504119     0.24352061    -3.86911147    -0.08638140     0.41316037     0.29064500
O      -5.78714550     8.40633455    -8.05746325    -0.32959259     0.64216944     0.44697141
O      -9.89757641     8.43622737    -4.03862454     0.70533879    -0.23107595     0.91131046
O      -5.87449070     0.52789742    -8.13285954     0.38313610     1.01530981     0.38609411
