# total energy = -631.03954107 eV

CRYSTAL
PRIMVEC
        0.00285542     0.02004370    -7.95977623
       -7.82940539     0.00763210    -3.98158109
       -3.91729101     8.74642787     0.01461334
PRIMCOORD
56 1
Li     -3.95484497     2.44220559    -1.96170143     0.14286613    -0.38159841     0.13011776
Li     -3.83708458     2.25460759    -6.07743435    -0.53527895     0.11628414     0.49340024
Li     -7.95856043     2.15163111   -10.09474521     0.80518650     0.38708450     0.65512217
Li     -7.74146608     2.03042470    -5.79997497    -0.10708665     0.35280780    -0.24352041
Li     -3.85102466     6.62358671    -1.85754228    -0.31913705    -0.09167338    -0.25108763
Li     -3.78346934     6.44743746    -5.93784892    -1.19960512    -0.17760686     0.35512852
Li     -7.95406546     6.19150690    -9.89995611     0.22890335     0.73863771    -0.02746454
Li     -7.87972022     6.60513739    -5.76801489     0.50994607     0.02880352    -0.36746567
Ti     -1.94659535     2.20483201    -4.04933804    -0.10943571     0.56365820    -0.08001531
Ti     -5.91324295     6.71202979    -7.90295939     0.53975036     0.56265307    -0.23786763
Ti     -7.81422083     4.36847659    -7.65407048     0.13592763    -0.33358680    -0.48945217
Ti     -7.91398658     4.35295125    -3.80379347     0.48441412    -0.41051325     1.27529330
Ti     -3.89477018     4.42722074    -7.76004163     0.53136897     0.00904448     0.98162720
Ti     -4.04985978     4.42288913    -3.77357536    -0.50787892     0.41452586    -0.65905115
Ti     -2.12438265     0.03177257    -2.05046146    -1.09285191    -0.83093696    -0.27919982
Ni     -5.87948307     2.34430404    -8.06399131     0.57733306    -0.01458405     0.05095690
Ni     -5.82131193     2.14432379    -4.02241988     0.04361951     1.31345742     0.50180326
Ni     -9.81249702     6.29540835    -7.80408616    -0.79154900     0.64452699    -0.10309955
Ni     -9.70903158     6.53195909    -4.00349179    -0.49394668    -0.35511672     0.17438103
Ni     -1.98517221     2.20218873    -7.97797787     0.01330764     0.23577541     0.85651940
Ni     -5.81669585     6.67894061    -3.87653835    -2.00996586     0.23508741    -0.59550343
Ni     -5.87361683     8.75476993    -5.96295964    -0.15745211     0.49696660     0.96514957
Mo     -9.92048313     8.69762410   -10.21452772    -0.29715959     1.28484568     1.74793987
Mo     -9.74860619     8.75609454    -6.36830433    -0.46580679    -0.16341039     1.14623553
O      -2.01739714     1.87969515    -1.83532259     0.70023018     1.00397892    -1.13167747
O      -2.00297955     1.97926793    -5.98728934     0.46297791    -1.25257009    -0.18392906
O      -5.78500694     6.84948329    -1.94856377    -0.39529799    -0.50690120     0.34361292
O      -5.79035952     6.92268781    -5.84251807    -0.89450393    -0.18224331    -0.50376743
O      -5.79107459     1.97034077   -10.02629639    -0.73767920    -0.04306903    -0.52216743
O      -5.72707093     1.97450342    -5.90916016    -1.11951529    -0.21449108    -0.64324431
O      -9.88401626     6.88778130    -9.90989573     1.61647017    -0.64305785     0.45377979
O      -9.79013066     6.84598823    -5.93856204     0.29757272    -0.05094319    -0.31189715
O      -3.84547645     2.42796393    -4.00733067     0.02598763    -0.41309970     0.06769551
O      -3.93995032     2.50843802    -7.95963016     0.41567789    -0.56047171    -0.20096748
O      -7.87284906     2.42171015    -3.92823168    -0.23794136    -1.04940091    -0.74877012
O      -7.76948003     2.44234035    -7.92234520    -0.96852115    -0.61662414    -0.38587520
O      -4.07772794     6.40906450    -3.96234400     3.06513325    -1.08506076     0.42832912
O      -3.98574239     6.42347793    -7.88151986     0.04336427     0.06548978    -0.52242887
O      -7.72146073     6.27969496    -3.94303162    -0.13885189     1.05029092     0.22047308
O      -7.85591013     6.30037745    -7.94092558     0.62838585     0.40234481     0.41526101
O      -3.87816034     4.33772250    -2.04148931     0.28887127     0.62564552     0.64390566
O      -3.73245742     4.51020809    -5.97730939    -0.31546488    -0.47336887    -0.28328255
O      -7.96556210     4.37703255    -9.96647367    -0.01078451    -0.40161169    -0.30620155
O      -7.86154273     4.29865749    -5.91891800     0.22623257     0.34554888    -0.13816379
O      -7.86489002     8.71841514    -2.01197044    -0.28660630    -0.34559463     0.04380684
O      -7.98654262     8.74188860    -5.90462190     0.24971109    -0.38269305    -0.72532675
O      -7.62847967     0.04957072    -5.88599097     0.50783223    -0.03526346    -0.46172795
O      -7.80815373     0.03121997   -10.06504553     1.30098280     0.26448266    -0.31982066
O      -1.95725494     4.23562962    -3.98042250     0.31333745    -0.75660140     0.03433490
O      -9.81543392     4.65610096    -4.14231291     0.35273035    -0.15304127    -0.02003157
O      -5.92815013     4.11823376    -3.92536447     0.45356307    -0.26414380    -0.58652253
O      -5.78621202     4.33934080    -8.03975685    -1.82917319     0.16057106     0.32593775
O      -1.85679903     0.21737330    -3.97218716    -0.18203210     1.12945040     0.17749685
O      -5.93888955     8.55592068    -7.89757410    -0.09267202    -0.64954275    -0.25771204
O      -5.75137969     0.22134465    -3.99341238    -0.26655830     0.10090896    -0.97552012
O      -5.94747253     0.46065949    -8.15453735     0.47238205     0.48319256     0.14320930
