# total energy = -630.86756121 eV

CRYSTAL
PRIMVEC
        0.00279571     0.02951795    -7.98606283
       -7.83802570     0.01298533    -3.99532603
       -3.92160916     8.71933433     0.00634407
PRIMCOORD
56 1
Li     -4.06542206     2.37032986    -1.78826349     0.33884949    -0.17945340    -0.55995245
Li     -3.94095826     2.04847213    -5.86594969     0.19891851     0.16786791    -0.92012895
Li     -7.82543087     2.27879820    -9.96782126     0.18034542     0.15564060    -0.14376785
Li     -7.76464190     2.17637418    -5.97157060    -0.47626254    -0.05206130     0.22479512
Li     -3.88294872     6.57641766    -1.91602658    -0.13513658    -0.20709550    -0.63886125
Li     -4.08431851     6.30850955    -5.75157956     0.51464205     0.57415597    -0.40474819
Li     -7.94858933     6.26558845    -9.98916725     0.09762758    -0.04090418     0.06655378
Li     -7.83143853     6.71866457    -5.82742090     0.05835418    -0.45614575    -0.34153799
Ti     -1.88859131     2.31462293    -4.00828940    -1.83982425     0.77061739     0.08853499
Ti     -5.79066952     6.77884796    -7.89183200    -0.99505775    -1.47705686    -0.17076699
Ti     -7.63429064     4.43065426    -7.76034988    -0.10352229     0.41330006     0.50675208
Ti     -7.78198050     4.21549260    -3.83739210    -0.46094509     1.88378116     1.05382949
Ti     -3.76990021     4.31340356    -7.74018131    -0.71238409     1.02704337     0.03273343
Ti     -4.04732368     4.43054046    -3.75639328     0.59393584    -0.99728322     1.33187281
Ti     -6.09260062     8.67688131    -2.15499392    -0.53058297     0.05207761     0.41345879
Ni     -5.93274915     2.21763833    -7.88550410     0.53900427    -0.36370288    -0.53186710
Ni     -5.85519778     2.18299683    -4.02645999    -0.04906604     1.08721878    -0.32080061
Ni     -9.74998077     6.38127872    -8.04003516    -0.79656198    -1.48950326     0.02164442
Ni     -9.85276149     6.83021645    -3.99885125     0.21095456    -1.17136522     1.39196929
Ni     -1.98098365     2.12892842    -7.97186991    -0.02925122    -0.33585915    -0.46675104
Ni     -6.01637280     6.62288790    -3.96293915    -0.02102418     0.10921761    -1.25395770
Ni     -1.92790262     0.11036126    -6.01575275     0.09032434     0.95320352     0.51151873
Mo     -9.88970764     8.70133660   -10.24726207     1.07969942    -0.53984529    -0.29495317
Mo     -9.73934818     8.70437654    -6.31966868    -1.09943473     1.25806497    -1.03053076
O      -2.07734798     1.87217297    -2.04885253     0.57320259     1.13505921     0.74319397
O      -1.88536602     1.94991744    -5.96171949    -0.47695676    -0.55789132    -0.46941202
O      -6.04785111     6.73342280    -2.19340836     0.64618677     0.58730909     1.69595002
O      -5.86212104     7.05094759    -5.98476996    -0.24533871    -1.49591465     0.91625832
O      -5.87726338     1.82715477    -9.76589278    -0.22136017     0.65092263     0.14072011
O      -5.84761965     1.97012499    -6.07042751    -0.42230134    -0.26595820     0.75919872
O      -9.89697653     6.74022055   -10.07236527     0.05684346     0.55619544    -0.36431919
O      -9.72064329     6.88407212    -5.79161429    -0.54718455    -0.40896990    -0.44374078
O      -3.89307003     2.46605373    -4.14066228     0.06629016     0.00308726     1.37463719
O      -4.07973211     2.43955639    -7.89061101     0.60636847    -0.39398062     0.09011620
O      -7.89455713     2.33149635    -4.00616555     0.68763589    -1.08163519    -0.24747309
O      -7.85802009     2.49678990    -8.02536045     1.00721127    -0.89970379     0.75561844
O      -3.91864421     6.31852177    -3.86195829    -0.14946274     0.37741141    -0.51865908
O      -3.97477230     6.44234930    -8.04707127     1.63786250     0.12016119     0.38950689
O      -7.99262371     6.27008402    -3.96528554     0.95019893     0.26333152    -0.01251526
O      -7.83393365     6.30592609    -7.91513334    -0.65418450     1.11487199    -0.57675921
O      -4.09672634     4.31085411    -1.93895033     0.28326550     0.25251654    -0.73760963
O      -4.18682756     4.52109384    -6.01925649     0.58481266    -0.26653123    -0.07842808
O      -7.88699324     4.28107000    -9.99579310     0.05101595     0.35628463    -0.41078134
O      -7.95117165     4.38471789    -5.99485271     0.26802359    -0.41720987    -0.33253286
O      -7.93550646     8.72868875    -9.86685091    -0.11472178    -0.21850445    -0.86411888
O      -3.95495467     0.08882165    -6.15659220     0.08683093    -0.02958100     0.28179829
O      -7.66770877     0.05552090    -6.15473779     0.53987287    -0.06239884     0.58113233
O      -7.71158609     0.09439521   -10.16027493    -1.16828905    -0.20984923     0.39356070
O      -2.06560609     4.36555360    -4.07246860     0.64385660    -0.07375316     0.26184521
O      -1.92063465     4.04862944    -7.94960600    -1.04216487    -0.40261250    -0.18536085
O      -5.93701763     4.09877657    -4.00596699     0.54868720    -0.55319120    -0.29777273
O      -5.83490921     4.80351338    -7.98418411    -0.07303981    -0.38696108    -0.02257743
O      -1.83436648     0.37951442    -3.93891666    -0.53978264    -0.64134822    -1.34376534
O      -5.78799826     8.61013578    -8.08394597    -0.08961470     1.15403801    -0.48504192
O      -5.71867174     0.35506917    -4.10698543    -0.24808977    -0.37784203     0.86316211
O      -9.80410775     8.17789583    -8.08088374     0.18317346     0.37930070    -0.51852965
