# total energy = -630.65103022 eV

CRYSTAL
PRIMVEC
        0.00285542     0.02004370    -7.95977623
       -7.82940539     0.00763210    -3.98158109
       -3.91729101     8.74642787     0.01461334
PRIMCOORD
56 1
Li     -3.94145546     2.27290553    -1.92127500     0.18969717     0.06742617    -0.57540691
Li     -3.98575740     2.33258880    -5.93623383     0.27772793    -0.58944734     0.12790919
Li     -7.86284942     2.15452492   -10.09431231     0.21749175     0.20762080     0.40626075
Li     -7.73199347     2.17971504    -6.05528464    -0.45494399     0.02858691     0.39425884
Li     -3.90778439     6.57008643    -1.90264231    -0.14872974    -0.11629627     0.10642166
Li     -3.80207640     6.71082930    -5.74785390    -0.11495375    -0.39158319    -0.13138773
Li     -7.82372876     6.57206683   -10.01147782     0.36165655    -0.28911305     0.44678214
Li     -7.88512825     6.55182213    -5.92708461     0.26976890    -0.22898038     0.45743269
Ti     -1.93889068     2.50493382    -4.15965848    -0.31880416    -0.99599909     1.37757982
Ti     -5.79958566     6.91333486    -7.83035161     0.17984915     0.00690786    -0.50970870
Ti     -7.65107475     4.38146454    -7.76316449    -1.50670935     0.19538682     1.78984094
Ti     -8.03861244     4.31835145    -3.85696875     1.56221821     0.73795505     0.61745288
Ti     -3.92602027     4.27983724    -7.64446751     0.26476836     0.94549297    -0.51013468
Ti     -4.11780115     4.49671243    -3.68258491     0.32039760    -1.02013702    -0.21257144
Ti     -6.05122176     8.73767070    -2.26782867     0.52139816     2.20038723    -1.44193592
Ni     -5.77412359     2.16476949    -7.91252654    -1.53772203     1.01450608    -1.69794218
Ni     -5.92090065     2.39261914    -4.07316084     0.40032915    -0.85173461     0.12205955
Ni     -9.74420611     6.44693306    -7.74555019    -0.08834976    -0.14351680    -0.66338305
Ni     -9.73755129     6.44418837    -3.85427094    -0.42215178     0.48799958    -0.44343489
Ni     -1.91614548     2.21040158    -8.06982958    -0.33988224    -1.42387537    -0.10233133
Ni     -5.85379094     6.51814201    -3.94918607    -0.64767323     0.37216935    -0.09624686
Ni     -5.97982522     8.70192025    -5.87233608     0.35562083     0.79379122    -0.77148598
Mo     -5.94556197     0.04828322   -10.20828620    -0.15159997    -0.78561440     0.31237638
Mo     -9.85454311     8.63901042    -6.30449893    -0.08683637     0.32654761     0.85883640
O      -1.80941049     1.94323188    -2.20791915    -1.32270826    -0.50282833     1.09722789
O      -1.98771053     1.87911804    -5.98143990    -0.11459698    -0.90399255    -0.69585920
O      -5.85952125     6.92471078    -1.98083619     0.34612389    -1.56904695     0.68167109
O      -5.88310322     6.73106182    -5.89620740     0.23616093     0.97780947    -0.10017718
O      -5.89705090     1.99744191    -9.85751174     0.47673959    -0.11482897    -0.41383899
O      -5.85000743     1.94825993    -6.04057581     0.24696926     0.48228277     0.46402000
O      -9.63336938     6.81030002    -9.89902587    -1.45041348     1.07369236     0.18173684
O      -9.83376272     6.78964477    -5.83820188    -0.11427685    -0.54566649     0.13735295
O      -3.86903001     2.50352898    -4.00544615    -0.88803315     0.35380095     0.04169149
O      -3.93120641     2.31828745    -7.98976050     0.89185527     0.45698372     0.72393974
O      -7.83479468     2.31425886    -4.05475960     0.27623940     0.65488679    -0.14012788
O      -7.82496454     2.43049601    -7.99018615     0.42793746     0.00065245    -0.43519220
O      -3.85883239     6.42446638    -3.82440734     0.13513007    -0.50319551    -0.46514436
O      -3.87972494     6.37798437    -7.96403134    -0.85185261    -0.75863561     1.04270735
O      -7.84950877     6.38308183    -3.94937164    -0.36330908    -1.01654427    -0.10651595
O      -7.73072476     6.37156645    -7.95570852     0.67361990    -0.21927224     0.24829135
O      -3.80304569     4.25079263    -1.97464199    -0.69728220     0.78485634    -0.03999731
O      -3.68710384     4.32455630    -5.88415787    -0.61254455     0.28473013    -0.66299912
O      -7.90799487     4.22568798   -10.05190896    -0.26428797     0.43766522     0.49824212
O      -7.84344130     4.35946076    -5.94021113     0.44892732     0.24805935    -1.96734600
O      -3.97583533     0.00515464    -2.16744325    -0.12066887     0.21333789     0.86794359
O      -8.08474813     8.66484929    -6.00059826     0.82587692     0.01591519     0.26627070
O      -7.75498820     0.10853583    -6.06515456     0.51822739    -1.02922767     0.10689606
O     -11.64176211     8.74924816    -9.86012410     0.75135228    -0.59695557    -0.42698200
O      -9.68876459     4.32749641    -7.90979852    -0.20406343     0.44378433    -0.53974991
O      -2.05272874     4.00449945    -0.17875877    -0.00511203     0.50160944     0.26374439
O      -6.00500783     4.33800288    -3.98219315     1.20966964    -0.23177317    -0.15341157
O      -5.82683353     4.14338200    -7.96987125     1.15742031     0.26441799     0.09164616
O      -2.08146770     0.21410557    -4.10353176     0.30655509    -0.20289457     0.75449686
O      -5.74567594     8.72112539    -7.84453006    -0.58699796    -0.14547395     0.10908131
O      -5.89743468     0.48594646    -3.96663574    -0.24909263     0.07376793    -0.85838557
O      -5.80096608     0.35286749    -8.09194162     0.04661296    -0.07158162    -0.35212011
