# total energy = -630.68744181 eV

CRYSTAL
PRIMVEC
        0.00279571     0.02951795    -7.98606283
       -7.83802570     0.01298533    -3.99532603
       -3.92160916     8.71933433     0.00634407
PRIMCOORD
56 1
Li     -3.80469220     2.55519178    -1.83919643    -0.57819947    -0.70800208    -0.68119801
Li     -3.97641567     2.29995274    -5.98971897     0.36849430    -0.03339505     0.14287924
Li     -7.67700198     2.38088272    -9.92996920    -0.72517893    -0.05808172    -0.12477319
Li     -7.70485512     2.20259176    -5.85886117    -0.52529423    -0.06198501    -0.25589673
Li     -3.89182274     6.50536189    -2.00621587     0.16295220    -0.00753774     0.06984267
Li     -3.93297424     6.54857445    -5.80491378     0.11366278    -0.19022265    -0.72404381
Li     -7.92158229     6.33374918   -10.06230567     0.32215390     0.02878687     0.59065435
Li     -7.98047433     6.67923922    -5.90695113     1.06953125    -0.24440116     0.19013087
Ti     -1.89363629     2.23951098    -3.94560735    -1.07893415    -0.79689020    -0.77012334
Ti     -5.77705483     6.65592262    -8.05074472    -1.74273079    -0.46067696     0.74480278
Ti     -7.85008044     4.39095225    -7.70696603     0.11555276     1.61105480     0.11262901
Ti     -7.78972355     4.28667744    -3.78538881    -0.99104004     1.30411076    -0.44324044
Ti     -3.92154569     4.37065209    -7.82465561     1.38532537    -0.01471052     0.59960895
Ti     -4.00576815     4.45894789    -3.78792760    -0.36752806    -1.38219394    -0.11235447
Ti     -6.11385160     8.67449450    -2.03458666    -0.37567290    -0.15509438    -0.32672224
Ni     -5.86930151     2.47638237    -8.00061224     0.22887819    -1.22365798    -0.54284906
Ni     -5.92118567     2.02104102    -4.03385919     0.64922662     0.52913779     1.70227777
Ni     -9.72320249     6.71661398    -8.01292976    -1.98591805    -0.43497459     1.90704160
Ni     -9.80083851     6.46880406    -3.92664630     0.19531195     0.92129198    -0.31281431
Ni     -1.94380228     2.07637463    -7.95897144     0.84756152    -0.02039018     0.49534401
Ni     -5.78934704     6.57988337    -4.06059094    -2.23024246    -0.01064663     0.49453581
Ni     -5.89006191     8.72890580    -5.86163371    -0.66788714    -1.44810929    -0.91706965
Mo     -5.99744886     0.06486891   -10.26570674     0.88554453     0.29213680    -1.11093731
Mo     -9.84032737     8.70153702    -6.34776421     0.35051697     0.57591192    -0.55978564
O      -2.02108375     1.88662320    -1.96345061     0.44712244     0.20667869    -0.05697431
O      -1.90014755     1.82594252    -5.94231396    -0.17536630     0.24473788     0.27325543
O      -5.87505083     6.71605755    -2.01673027     0.22640375     0.39592839     0.28102143
O      -5.97659171     6.82321475    -5.92713225     0.56094205     0.97110432    -0.17979012
O      -5.83645253     2.00080579   -10.10887712    -0.19173156    -0.52674437    -0.19762077
O      -5.84446736     1.86291151    -5.81551649     0.08476327     0.71065885    -0.59396976
O      -9.73133207     6.88958959    -9.78315907    -0.55255890    -0.23127181    -1.12496435
O      -9.78417676     6.85562092    -6.03029847    -0.93440567    -1.15291923    -0.58797652
O      -4.02990936     2.53813424    -3.97568519     0.67275665    -1.33358051    -0.32126804
O      -3.78149061     2.45100736    -7.96035596    -1.10703720     0.12234149    -0.01529301
O      -7.83763786     2.34238846    -3.96609521    -0.19837862    -0.39217991    -0.08814082
O      -7.81394765     2.47621337    -7.91245760    -0.13814189    -0.96575614    -0.27874890
O      -3.87897476     6.34265690    -3.96705994     1.10512225     1.29425448    -0.13139304
O      -3.98445933     6.39395314    -7.84457892     1.04670228    -0.21368995    -0.84829123
O      -7.79633285     6.34048627    -3.93474575    -0.59664343    -0.31189270    -0.36497641
O      -7.96515704     6.32518014    -8.01351900     1.89733383    -0.50476936     0.21661378
O      -3.91773833     4.36807277    -2.02607623     0.38393193     0.88748805     0.45657652
O      -3.81619261     4.38434524    -6.07254767    -0.43492892     0.09750778     0.61723839
O      -7.85759677     4.27613926   -10.01721186    -0.13753386     0.22257581     0.46676574
O      -7.78609760     4.32600448    -5.95590052    -0.01216138    -0.13549963    -0.64092679
O      -7.99565765     8.70028694    -9.97675354     0.85122273     0.26241965    -0.02097871
O      -7.95733517     8.63964735    -6.25493906    -0.30321378     0.65880648     0.73606333
O      -7.76661724     0.10129482    -6.09837595     0.43999805    -0.73236381    -0.07685160
O     -11.65386364     8.64838893    -9.93643040    -0.70154074     0.43974550    -0.02757468
O      -1.99527166     4.06184318    -3.98006857     0.60501272     0.28324274    -0.05688051
O      -9.76854861     4.65590910    -4.05787766    -0.10680270    -0.36921160    -0.08815536
O      -5.89629423     4.68026996    -4.07455955     0.57534599     0.00956367    -0.03487286
O      -5.89570973     4.38797512    -8.26750588     0.14827864     0.16916535     1.48513801
O      -2.06716762     0.04170077    -3.91178248     0.20831678     0.53000764    -0.31428683
O      -5.77681553     8.43295505    -8.04390358    -0.35465086     1.06891915    -0.13321718
O      -9.94701081     8.36043512    -4.11958479     0.65806977     0.26940508     1.54829457
O      -5.96508463     0.58534318    -8.09791943     0.32283872     0.83638598    -0.14218320
