# total energy = -630.53618912 eV

CRYSTAL
PRIMVEC
        0.00279571     0.02951795    -7.98606283
       -7.83802570     0.01298533    -3.99532603
       -3.92160916     8.71933433     0.00634407
PRIMCOORD
56 1
Li     -4.02062108     2.10452017    -1.97141794    -0.31728238     0.26058942     0.13691048
Li     -4.02443017     2.35576734    -5.88882472     0.99400362     0.33936794    -0.55172807
Li     -7.91111565     2.48094494    -9.98144941     0.17890475    -0.24264793     0.06338978
Li     -7.80007190     2.36721307    -6.05388911    -0.26228118    -0.51096549     0.56663525
Li     -3.80336777     6.84634397    -1.97907281    -0.15355379    -0.14420776     0.15559016
Li     -3.85478848     6.43040784    -5.84993487    -0.69658617    -0.24834970    -0.25066453
Li     -8.01474972     6.37318359    -9.92075692     0.98698818     0.01505877    -0.11118847
Li     -7.84983371     6.51208897    -5.86581652     0.10450485     0.34519672     0.00036719
Ti     -2.07739737     2.07801164    -4.05051049     1.67817310    -1.46547021     0.18511997
Ti     -5.78540621     6.48560479    -8.01487000     0.27048734     0.58674411     0.38854941
Ti     -7.96848199     4.43652569    -7.71515036     0.85434017    -1.64795235     0.08874944
Ti     -7.77286308     4.38693701    -3.79626096     1.11975185     0.14270412     0.38231319
Ti     -3.80262008     4.33862660    -7.83804951     0.08009521    -0.15255994     0.26173003
Ti     -3.99718399     4.40594902    -3.61510430    -0.33620916     0.59103748    -0.54586759
Ti     -2.28769462     0.11994727    -1.89295755    -0.48527198    -0.32244152    -0.17099020
Ni     -5.93929096     2.39037165    -7.92231116    -0.02198194    -0.63650271    -0.78589554
Ni     -5.85019262     2.14944449    -4.10378224    -0.76956169     0.29924548     0.71916645
Ni     -9.81440249     6.44493856    -8.06282750    -0.55136879     0.12484227     2.10414831
Ni     -9.72771977     6.36433177    -4.02502813    -0.31679883     0.80557542    -0.82810609
Ni     -1.92250729     2.14875692    -7.98853077     0.27736489     0.55716526    -0.52880421
Ni     -5.76595316     6.68562774    -3.96214249    -1.28073062     0.15816837    -0.03835454
Ni     -1.95024437     0.10350982    -6.03122951    -0.50564677    -1.53390710     0.21456366
Mo    -10.05561255     8.67611074   -10.23313939    -0.23701315     1.70258921     0.49376170
Mo     -5.76364286     0.22992781    -6.40195522    -0.81639408    -1.73061429    -0.79358816
O      -1.90554692     2.03539181    -2.02378075    -0.73623390    -1.00746400     0.43951187
O      -1.94823440     1.97316538    -6.06984883    -0.44380281    -0.16920551     0.32074003
O      -5.91055829     6.87959791    -1.91468348     0.33470317     0.05955819    -0.93294297
O      -5.85138961     6.96430356    -5.93737805    -0.38572680    -0.38810155    -0.10340710
O      -6.16922793     1.75890113    -9.66480324     1.16682502    -0.13226327    -0.83788571
O      -5.79770516     2.08640864    -6.09342686    -0.35799476     0.48069577     0.40902859
O      -9.83903799     6.78992455    -9.97876228     0.44136505    -0.72275086    -1.05788277
O      -9.79625481     6.71904602    -5.99409086     1.09329775     0.37733164     0.19959298
O      -3.95267843     2.30642734    -3.89559489     0.34412217     0.62848469    -0.54136601
O      -4.00156646     2.42659140    -8.14219359    -0.11617426     0.23254181     1.20234376
O      -7.76030044     2.43489480    -4.07064873    -0.33471203    -0.83878873     0.42898824
O      -7.96999937     2.36722642    -8.00355372     0.51087564     1.24151900     0.34114633
O      -3.92008212     6.36367441    -3.86298399    -0.13540961    -0.71642885    -0.59364558
O      -3.88681190     6.41767784    -7.99429789     0.19500392    -0.64481197     0.07390932
O      -7.73655920     6.40848904    -3.86378124    -0.20478362    -1.03616376    -0.71498330
O      -7.85427085     6.27085889    -7.93027395     0.05974337     1.34891397    -0.45271684
O      -3.85627198     4.39340367    -1.88875298    -0.37771596    -0.18457943    -0.32814858
O      -3.82850931     4.34132118    -6.08403754     0.15875496     0.11773967     0.52083217
O      -7.52951703     4.31817559    -9.98809710    -1.02712980     0.43688357    -0.24148904
O      -7.73460774     4.22509821    -5.97016994     0.16740310     1.07891017    -0.60807431
O      -4.11740123     0.16569239    -9.98184610     0.77360874    -0.31143325     0.11449534
O      -3.98413498     0.04840090    -6.11409077     0.85972902     0.22751267     0.37429700
O      -7.46906836     0.05799997    -6.00459255    -1.38625472     0.33276495     0.21817906
O      -3.97945072     8.55769254    -5.95111033     0.42785396     0.41011570    -0.76588586
O      -2.02066712     4.43658174    -3.98771054    -0.06859732    -0.11416767    -0.33244386
O      -9.63794038     4.34367667    -4.09647204    -1.28713168     0.23950046     0.58059337
O      -5.77576951     4.00496205    -4.08353592    -0.34643399     0.40768170     0.07878684
O      -5.86474552     4.62544640    -7.94102461     0.28404883    -0.09737831    -0.07943808
O      -2.00590252     0.21375222    -3.92660016    -0.06200103     0.94910463     0.25421002
O      -5.85951011     8.59918202    -8.05026682    -0.12974657     0.31485768     0.26710149
O      -5.88677375     0.12513524    -4.05094164     0.08279452     0.33231094     0.41303102
O      -9.91427582     8.33289201    -8.12923840     0.84945620    -0.95375490     0.17862396
