# total energy = -630.99648449 eV

CRYSTAL
PRIMVEC
        0.00279571     0.02951795    -7.98606283
       -7.83802570     0.01298533    -3.99532603
       -3.92160916     8.71933433     0.00634407
PRIMCOORD
56 1
Li     -4.02600245     2.27497006    -2.08034112     0.51031681     0.05072627     1.07781248
Li     -4.02085799     2.40152546    -5.99522291     0.54896031    -0.22254682     0.12630408
Li     -7.76328882     2.11886815    -9.86517138    -0.50816245     0.06021595    -0.34290669
Li     -7.63765341     2.17421683    -6.02574839    -0.66709175     0.27666234     0.47484397
Li     -3.72561411     6.41077534    -1.99157624    -1.24682592    -0.38598625     0.05698932
Li     -3.98215193     6.62144625    -5.98698524     0.04359416     0.05346646     0.53295862
Li     -7.94641082     6.65655494    -9.95695819     0.18454577    -0.20949062    -0.14127231
Li     -7.86475347     6.37227562    -5.92288026    -0.12317492     0.07066117     0.26615737
Ti     -1.99118347     2.11056727    -3.96415879    -0.40924279     0.37700240    -0.72020157
Ti     -5.87081737     6.54922529    -8.04154728    -0.96550761     0.25596677    -0.40105778
Ti     -8.00140146     4.37014110    -7.69314799     0.49237926     0.59171835    -2.24348413
Ti     -7.93507535     4.21863283    -3.71206245     0.08445252     2.56113332     0.34070763
Ti     -3.80137176     4.34800200    -7.70724077    -2.22961666    -0.52033426    -0.92558895
Ti     -4.06857252     4.41018072    -3.80185100    -0.39243108     0.35881606     0.73388572
Ti     -5.51102842     8.72337400    -2.01949037    -0.55254270    -0.78488291     0.97108777
Ni     -5.94269678     2.47786285    -8.02210256     0.91586277    -0.15732552    -0.43966063
Ni     -5.89064271     2.18527934    -4.01270989     0.01908914    -0.13663944    -0.01779147
Ni     -9.84218927     6.54421407    -7.97221908    -0.35238277     0.39507940     1.17463091
Ni     -9.89924609     6.53870512    -3.93734202     1.28507837    -0.69765241    -0.40836607
Ni     -1.90573182     2.00448328    -7.97841576    -0.87069457    -0.12545418     0.60248225
Ni     -5.99449569     6.57816276    -4.07259271     0.09279334    -0.39287628     1.18394677
Ni     -5.86132562     8.70588461    -5.94260842    -0.34650789    -0.73091342    -0.55299824
Mo     -5.90660370     0.12012444   -10.28390635     1.00741106     0.49289807     0.32545901
Mo     -9.62583909     8.72248845    -6.39553205     0.41335532    -0.35416206     0.07984259
O      -1.84126060     1.92272802    -1.90613041    -0.43551948    -0.22511478    -0.70276657
O      -2.05088156     1.82569442    -5.98308013     0.56527522     0.13194566     0.10720534
O      -5.93530688     6.80440325    -1.97628753     0.22607118    -0.05474891    -0.50550678
O      -5.97335843     6.81698763    -5.99462330     0.66486207     0.68710493    -0.07187769
O      -5.86283805     2.09692293   -10.12612449    -0.73184578    -0.37165254     0.20571024
O      -5.82431430     1.99996417    -5.91084026     0.08107264    -0.60458654     0.51949838
O      -9.90076448     7.04453318    -9.69841003     0.17255785    -1.43750546    -0.63912095
O      -9.84986206     6.82162099    -6.11690667     1.22102625     0.36418056     0.41183673
O      -3.94113184     2.39537997    -3.93487233    -0.15052615    -0.49892915    -0.59532058
O      -3.92382127     2.45340680    -8.07850515    -0.00267000     0.46873582     0.61437714
O      -7.90050054     2.34983002    -3.84665416     0.77413805    -0.69223392    -0.72291552
O      -7.85831138     2.40907216    -7.95614205    -0.57883170     0.09726028    -0.29040052
O      -3.88386224     6.33940642    -3.92420430    -0.22247647     0.26198932    -0.69157507
O      -4.00167948     6.41888837    -8.00694895     0.25420899    -0.75204839     0.51647421
O      -7.91048486     6.36262284    -3.98075241    -0.54055345    -0.38913294    -0.07926213
O      -7.97013582     6.36130543    -7.90574734     0.81046771    -0.37871379    -0.31691140
O      -3.98912461     4.45418330    -2.03770790     0.10774736    -0.33474491    -0.06421459
O      -3.93799017     4.37297944    -5.94935677    -0.27580764     0.17055364     0.12997420
O      -7.90363229     4.54099717    -9.97659707    -0.36190086    -0.49491793     0.27647568
O      -7.89406144     4.33967402    -5.99399819    -0.02397144     0.04927858     1.93019761
O      -8.03762279     8.73844828   -10.04833195     0.00940451     0.74019781     0.41425653
O      -7.86790606     8.71777389    -6.11455699    -0.19387157    -0.02045095    -0.12793158
O      -7.58658998     0.08846322    -6.01982312    -0.79106829    -0.21435866     0.27229960
O      -7.77202154     0.05922875   -10.13439367    -0.97842466     0.45066118     0.40487188
O      -2.05608211     4.07214039    -3.98378241     0.32289066    -0.57298294    -0.13393533
O      -9.90082043     4.64083614   -11.93779701     2.40163418     0.83630846    -0.47490855
O      -6.02995969     4.62667527    -4.01081365     0.76906985     0.09223661    -0.40496315
O      -5.98158107     4.36229550    -8.07284638     0.48673627     0.96460084     0.50312900
O      -1.88188289     0.05731503    -3.86918411    -0.36520579     0.75675972    -1.04947057
O      -5.84224154     8.46353520    -8.14434687    -0.25763760    -0.14865718     0.83910109
O      -9.72775481     8.33941281    -4.02454619    -0.39636084     0.86648439    -1.99583564
O      -6.00844666     0.64703411    -8.08311579     0.64023251    -0.18264234     0.01864566
