# total energy = -630.68307348 eV

CRYSTAL
PRIMVEC
        0.00279571     0.02951795    -7.98606283
       -7.83802570     0.01298533    -3.99532603
       -3.92160916     8.71933433     0.00634407
PRIMCOORD
56 1
Li     -4.02776523     2.36405065    -2.02680255     0.24629408    -0.30962793     0.59576671
Li     -3.81221121     2.19760634    -5.99614160    -0.60050998     0.15116495    -0.12842024
Li     -7.81440832     2.50596665    -9.98361820    -0.32618114    -0.33979021    -0.15045945
Li     -7.99466364     2.17235825    -6.08502183     0.78515810     0.05227290     1.02908846
Li     -3.85995648     6.54766637    -1.88947955    -0.17979395    -0.36770083    -0.47628797
Li     -4.09034186     6.37600149    -5.84363417     0.68718680     0.29944368    -0.58460697
Li     -8.04278990     6.75161054    -9.96996317     0.90062379    -0.57317338     0.11910719
Li     -7.77561912     6.39662988    -5.90470345    -0.12510011    -0.02608319    -0.58503426
Ti     -2.00603367     2.18923417    -4.09605133    -0.94163889    -0.96830423     0.55365282
Ti     -5.90640804     6.61537299    -7.99067140    -0.74954542    -0.10969045     0.01706050
Ti     -7.79439746     4.33869691    -7.78146092    -0.49452934     1.05517608    -1.23848446
Ti     -7.92411915     4.44550096    -3.83549937     1.00805720    -1.64486703     1.31627843
Ti     -3.78061228     4.32238710    -7.70371188    -1.17418307    -0.74035584    -1.12293038
Ti     -3.91744260     4.51520183    -3.79975435    -0.63772404    -0.65238246     0.46856985
Ti     -5.67241489     8.60342320    -2.15601101     0.29265725     0.59981489     0.74449306
Ni     -5.94481053     2.36687017    -7.84244101     0.94006270    -0.73657953    -0.92319119
Ni     -5.90601298     2.31458324    -3.96303659     0.24151733    -0.28832328     0.07817419
Ni     -9.89922229     6.75171807    -7.96690178     1.09857902    -0.01167188    -0.24487308
Ni     -9.80728021     6.54691770    -4.11453903    -0.25399956    -0.30392567     1.34946010
Ni     -1.86887834     2.03227813    -7.98363304    -0.71658570    -0.34478403    -0.30545447
Ni     -5.95443470     6.60109927    -3.97565752    -0.00228419    -0.32035836    -0.26213063
Ni     -5.87362373     8.66654581    -6.02624591     0.11517252     0.49813055     0.02409281
Mo     -6.01364576     0.11908872   -10.29128934    -0.69071593     0.39486585     0.37032787
Mo     -9.64017562     8.65388521    -6.15770245    -0.86806615     0.09463384    -0.98387510
O      -1.99575757     1.77930149    -2.01152437     0.01820790     0.57523553     0.75886774
O      -1.92122756     1.81660986    -6.06478743    -0.32914166    -0.04118707     0.02816170
O      -6.02380021     6.73435946    -2.03282295     0.28106701    -0.00020087    -0.04020620
O      -5.93124576     6.83621690    -6.03084141     0.43805912    -0.21427140     0.59820966
O      -6.00087826     2.07317815   -10.03217806     0.34126147    -0.54631870    -0.00544845
O      -5.72626499     1.87102209    -5.81562133    -1.08716990     0.08268688     0.29060279
O      -9.80587595     6.83152665    -9.88661419    -2.08507384     0.58387080     0.49696794
O      -9.72472800     6.70435895    -6.01116600    -0.73941833     0.20800595    -0.55762804
O      -3.94141081     2.35724449    -3.94965828    -0.27746461     0.59856472    -0.52309138
O      -3.97376631     2.31386759    -7.99717267     0.62087845     1.47497555     0.44777662
O      -7.83822779     2.36840406    -4.00584931     0.09042708     1.11116922    -0.47155077
O      -7.92269534     2.35984364    -7.96212925     1.20769070     0.41442081    -0.05118251
O      -3.95907939     6.47801950    -3.98359295     0.30850452    -0.65498838     0.40754793
O      -4.01914321     6.29438949    -8.01062705     0.80109958    -0.04720457     0.32010680
O      -7.87992915     6.32960976    -4.04494497    -0.02621200     1.38824767     0.11590530
O      -7.87750144     6.36117103    -7.94321776    -0.33916752    -0.53176665    -0.31644045
O      -3.88037822     4.29467359    -2.06441423    -0.09032895     0.40607063     0.01459652
O      -3.87609826     4.28215865    -5.95838343     0.19031817     0.07130244     0.60690431
O      -8.03554386     4.43894696   -10.04935293     0.66671100    -0.32567556    -0.04021358
O      -7.59437068     4.42121991    -6.08228904    -0.92913578    -0.48300246     1.53818806
O      -8.19076641     8.74365515   -10.05258749     0.96921895     0.39249227     0.60780032
O      -7.90765755     8.59344493    -6.09253272     1.68951238     0.17539463     0.19689806
O     -11.67871493     8.56305219    -5.98082325    -0.34413139     0.29304642    -0.20767259
O      -0.04125190     0.05185147    -6.02361096     0.74384139    -0.48289603    -0.13150351
O      -1.94779306     4.00262391    -3.95261804    -0.15716384     1.43625247    -0.21872046
O      -9.80999819     4.64228776    -4.08398405    -0.00946835     0.13936081    -0.58800196
O      -5.90457864     4.60967246    -4.03502676     0.29892719    -0.14740412     0.17526029
O      -5.82282474     4.39826291    -8.00033477    -0.27259910    -0.50322662    -0.41921322
O      -2.08265461     0.17815390    -3.96621505     0.20168152    -0.97635819    -0.73473598
O      -5.90253253     8.44080071    -8.07897234    -0.04857116     0.41624320    -0.29978879
O      -9.82823724     8.50503322    -4.08806409    -0.39070916    -0.82282477    -0.60033461
O      -5.99601554     0.44290962    -7.87713199    -0.05972726     0.76527624    -1.17893421
