# total energy = -630.39925922 eV

CRYSTAL
PRIMVEC
        0.00279571     0.02951795    -7.98606283
       -7.83802570     0.01298533    -3.99532603
       -3.92160916     8.71933433     0.00634407
PRIMCOORD
56 1
Li     -3.94343444     2.44696378    -1.92739716     0.06520672    -0.51591866     0.20679890
Li     -4.10244415     2.06246110    -5.87023020     1.17438867     0.70393341    -0.36100455
Li     -7.81991060     2.44255002   -10.04303058    -0.16802727    -0.08004372     0.44592044
Li     -7.80885841     2.42233747    -5.72876266    -0.42645984    -0.45028093    -1.03569823
Li     -3.87574062     6.78418381    -1.85618002     0.06429876    -0.90790563    -0.47371658
Li     -3.87258175     6.41810867    -5.92059482    -0.31211614    -0.05565029     0.03161436
Li     -8.02413747     6.55191379   -10.10304009     0.97191916     0.09376825     0.72948124
Li     -7.91231043     6.43299643    -6.04484704     0.88980514     0.01016519     0.62726940
Ti     -1.90054366     1.97396857    -4.01180703    -0.01507915     1.25168358    -0.40323219
Ti     -5.92943896     6.56605230    -7.95495126     0.23615599     1.05066254    -0.49692364
Ti     -7.73518813     4.34904903    -7.77365662    -1.47685598     0.15325192    -1.56401280
Ti     -7.78437307     4.39322421    -3.71472188     0.61738586     1.09702933    -0.63758734
Ti     -3.83343508     4.43523925    -7.75391203     0.49265072     0.13184869     0.87200759
Ti     -3.90284133     4.33231318    -3.77068958    -0.26396271     0.85018459     0.01944624
Ti     -2.14157976     0.06278313    -1.92518101    -2.52360386    -1.43965833     1.52640116
Ni     -5.86439872     2.26718423    -7.94126435    -0.63834350    -0.20170630     0.43237427
Ni     -5.86039292     2.26732998    -4.08796915     0.47964177    -0.77085187     1.16873428
Ni     -9.82245679     6.27532475    -8.04739916    -0.87472374     1.08240985     0.54972608
Ni     -9.65003967     6.67894354    -4.13859330    -0.48138406    -0.24597792     0.91516627
Ni     -1.95123126     2.35755676    -7.96970245    -0.20198845    -0.65063404     0.75595910
Ni     -5.81793770     6.63384654    -3.96842646    -0.59015647    -0.40371851    -0.12984040
Ni     -2.03561141     0.02775171    -5.92809654     0.09802615    -1.23893643    -0.90540752
Mo     -6.12062167     0.07983022   -10.22826138     3.34112260     0.26881456    -1.10016744
Mo     -5.84399104     0.14230842    -6.45283718    -1.03483506    -2.27112649     0.03468545
O      -1.86164909     1.92480713    -1.90489263    -0.00040022     0.64477442    -0.49076125
O      -1.96236709     1.85307336    -5.98616989    -0.04922423     0.42481532     0.15293972
O      -5.93884043     6.78836534    -1.92396987     0.37299005     0.38294681    -0.59413799
O      -5.87783678     6.88438270    -5.90348590    -0.29092288     0.07507186     0.33531483
O      -5.79085714     1.94446088    -9.78846726    -1.19789071    -0.92120837    -0.41343367
O      -6.00540164     1.95503725    -6.02488629     0.70280808     0.94957774    -0.44032614
O      -9.79995898     6.84753864   -10.20552409    -0.28084879     0.12382394    -0.12165196
O      -9.63892194     6.74365813    -5.94397511    -1.51941471     0.74125247    -0.39933900
O      -3.79549178     2.34699505    -3.94591886    -0.59821614    -0.36699433    -0.18676126
O      -4.05650178     2.50652467    -7.84907164     0.94459188    -0.34262052    -0.77906272
O      -7.74728060     2.48444735    -3.96282916    -0.52027455    -1.27046926     0.58192786
O      -7.81100353     2.39492717    -8.06528656     0.01467798    -0.49320564     0.10683103
O      -3.94798438     6.27892449    -3.91299726     0.66128159     0.09007734    -0.49006851
O      -3.98384403     6.42964178    -7.94640929     0.41352099    -0.63775264    -0.12743480
O      -7.70269861     6.32195458    -3.99640705    -0.30963618     0.14315804    -0.31715047
O      -7.96879052     6.32267015    -7.95356890     1.00229450    -0.69288457    -0.38936619
O      -4.10372765     4.36660715    -2.03491895     0.28196857    -0.43192969     1.54547585
O      -4.01749369     4.33430753    -5.97827426     0.13413064     0.62882113    -0.73269966
O      -7.98450450     4.40412945    -9.96847502     0.39709745    -0.05937961     0.73261578
O      -7.79533240     4.21475869    -6.07547181    -0.37226706     0.73248918     2.01541181
O      -3.98139849     0.07992106    -2.12901210     1.00713585    -0.28216976     0.64385386
O      -4.07955347     0.04317920    -6.00765247    -0.22784622     0.51001795    -0.27121314
O     -11.52029488     8.61467018    -5.95752647     0.20620923     0.73165408    -0.50420487
O      -3.90440802     8.64485424    -6.12495870    -1.57500852     0.79393532     0.32630542
O      -2.01336674     4.27432802    -3.95983097     1.17861180     0.62727903    -0.25699389
O      -9.73202248     4.30949236   -11.96253830    -0.97792407     0.30570332    -0.69543285
O      -5.85562092     4.13004987    -4.01595330    -0.67168316    -0.10220327    -0.32026867
O      -5.90444289     4.65118503    -7.95437463     0.79450254    -0.18455511    -0.31913803
O      -1.90063996     0.14308915    -3.86993812     0.45031714     0.34972173    -0.89202929
O      -6.10238056     8.48182717    -7.91713493     0.59568279     0.56822070    -0.52817922
O      -5.84497681     0.10735325    -4.08446794    -0.30795730     0.14119453     1.30849747
O      -9.89276615     8.23718109    -8.20417034     0.42452027    -0.84195291     0.41259754
