# total energy = -630.95580841 eV

CRYSTAL
PRIMVEC
        0.00279571     0.02951795    -7.98606283
       -7.83802570     0.01298533    -3.99532603
       -3.92160916     8.71933433     0.00634407
PRIMCOORD
56 1
Li     -3.98414607     2.26074918    -1.84278154     0.87359764     0.27338599     0.06097768
Li     -3.91444763     2.11283336    -6.04580840    -0.01383740    -0.03880458     0.08936369
Li     -7.77379778     2.30571412    -9.93918868     0.21058590     0.23308764    -0.29630506
Li     -7.68764069     2.10906670    -5.88336757    -0.22833281     0.34234473    -0.06983169
Li     -3.99071155     6.28298991    -1.97441782     0.34608839    -0.08990117     0.18533857
Li     -3.79900005     6.37276119    -5.99371205    -0.39389644     0.22710387     0.39413527
Li     -7.83534663     6.51310389    -9.92578349    -0.17930837    -0.23175309    -0.12704334
Li     -7.66029948     6.66035596    -5.78635268    -0.80954231    -0.32831152    -0.36894162
Ti     -1.99230080     2.19365906    -4.04898137     0.52233496     0.36539271    -0.16177701
Ti     -5.91670517     6.73912124    -7.97914859     0.56467921    -1.25031896     0.91183403
Ti     -7.87106135     4.33241676    -7.72761746     0.29304296     0.35196160    -0.92159432
Ti     -8.01384954     4.40651264    -3.75634159     0.15782331    -0.02273542    -1.64025549
Ti     -3.94139002     4.36331425    -7.74782744     0.03324456     0.29029177    -1.13087299
Ti     -4.14847829     4.33478986    -3.83381870     1.46690116     0.57876099     1.09829346
Ti     -2.10386745     0.04011568    -2.05539772    -0.49493794     0.30876953    -0.46263685
Ni     -5.86168788     2.24329775    -7.93452389     0.56907251     2.58665322    -0.50845818
Ni     -5.72506020     2.11007461    -4.07536020    -1.49299162     0.20462900     0.28659740
Ni     -9.83809201     6.44513604    -7.92465145     0.64417518     0.48559978     0.48171425
Ni     -9.81774201     6.63535294    -3.92897493     0.29834485    -0.23878255    -1.15927209
Ni     -1.76875054     2.07302052    -7.94352122    -0.85058904     0.57311117     0.45963611
Ni     -5.82026367     6.64108804    -3.91825462    -0.47255719    -0.44519718    -0.59568469
Ni     -1.95341270     0.06212841    -5.94934541    -0.10841223    -0.28661380    -0.41676443
Mo     -5.93985608     0.10200407   -10.30226638     0.00332884     0.97824354     0.80058874
Mo     -9.88600914     8.54290402    -6.41354977     1.74500931    -0.68845248     0.46548301
O      -1.88291828     1.91860289    -1.83500697     0.25475611    -0.14461995    -0.59871350
O      -2.00207127     1.97644874    -5.99030498     0.92061016    -1.22128891    -0.34685925
O      -5.87064126     6.82810050    -1.91645797    -0.07217428    -0.38494584    -0.98607013
O      -5.79601156     6.90166337    -5.94281235    -0.02383448     0.60372739     0.39180874
O      -5.75114038     2.02048566   -10.09848948    -0.68209951    -0.14067517     0.10332977
O      -5.77478758     2.00460831    -5.93563476    -0.65998054    -0.81450715    -0.21090117
O      -9.72686645     7.01024664    -9.82672591    -0.32189942    -0.79958344     0.66100694
O      -9.91467552     6.64532928    -5.98058253     0.46178832     1.06050126    -0.79346800
O      -3.88836335     2.38403965    -4.04320165    -0.28140293    -0.58101695     0.06392024
O      -3.81376067     2.47350816    -7.87495964    -0.18009789    -0.61728381    -0.80285635
O      -7.71580411     2.49958839    -3.97617650    -0.22891152    -0.92145665     0.09520018
O      -7.76493993     2.39156727    -7.97348694    -0.62193341    -0.35834869    -0.19600284
O      -3.81821250     6.42081370    -4.01482347    -0.85291144    -1.28342711     0.22475157
O      -3.91882981     6.43355788    -7.98353384    -1.16348615    -0.17772366     0.33277810
O      -7.88737245     6.35718799    -3.94180811     0.71118442     1.13331804     0.00067314
O      -7.88135493     6.27377811    -7.92201608     0.54353123     1.01140888    -0.19635826
O      -3.93084757     4.26052550    -2.04370481     0.25046635     0.51083181    -0.82689715
O      -3.80023135     4.43821104    -6.00376888    -0.22905652     0.13879773     1.02796159
O      -8.00305868     4.51663476   -10.03427669    -0.03057447    -0.44641873     2.18830402
O      -7.84387394     4.39550599    -6.02692655     0.19507695    -0.01550067     1.41345581
O      -3.93648019     0.08885777    -2.02775619     0.18944723    -0.11578794     0.02715920
O      -8.08280838     8.60125425    -6.15553746     0.58177848     0.17811761     0.53796380
O     -11.62734662     8.71497969    -6.05122873    -0.99279069     0.42613865     0.30104374
O      -7.69011623     0.22179086   -10.15771825    -0.46685356    -0.22557135     0.30040531
O      -2.03189722     4.03709412    -3.98585164     1.17813294     0.44592441    -0.04354477
O      -9.86325612     4.85479896    -4.11211348    -0.09472648    -1.34871425     0.37761259
O      -5.93657593     4.56735793    -3.88502001    -1.05040825     0.62127218    -0.78343425
O      -5.87674029     4.39480915    -8.14447467     0.02723012    -0.43426995     0.97132059
O      -2.01325808     0.18758923    -4.02560586     0.29249551    -0.08010127     0.73864924
O      -5.90677249     8.53290196    -8.00448598    -0.02839624     0.80534067     0.29140707
O      -9.73994600     8.59955533    -4.09228895     0.03590521    -0.15975714    -0.69571376
O      -5.86811234     0.49109885    -8.12126462    -0.29329276    -0.72677766    -0.83954824
