# total energy = -630.98240288 eV

CRYSTAL
PRIMVEC
        0.00279571     0.02951795    -7.98606283
       -7.83802570     0.01298533    -3.99532603
       -3.92160916     8.71933433     0.00634407
PRIMCOORD
56 1
Li     -4.06489909     2.25218238    -1.88928913     0.45417470    -0.00813690     0.14868244
Li     -3.85244909     2.47027404    -5.90404909    -0.24090666    -0.31000790    -0.23560460
Li     -7.69777275     2.33931216    -9.92091145    -0.70769365    -0.12372308    -0.13823822
Li     -7.90792402     2.46780333    -5.99760198     0.49523945    -0.31778763     0.69071634
Li     -3.78114451     6.59585431    -1.88256128    -0.55044495     0.17201183    -0.69971364
Li     -3.99591781     6.41172177    -5.97083259     0.18249871    -0.10646614     0.49853104
Li     -7.87223608     6.42756928    -9.86582644     0.04479993     0.18669758    -0.54433673
Li     -7.77097950     6.28564020    -5.98527187    -1.01271182     0.10127743     0.53881062
Ti     -1.94822025     2.22042198    -3.86383381    -0.50951269    -0.30747523    -0.18806474
Ti     -5.91655857     6.66700529    -7.84536209     1.42925931     0.87801693    -2.39992038
Ti     -7.65954512     4.36023347    -7.88841513    -0.33161119    -0.05719635     0.40959212
Ti     -7.80186192     4.30385885    -3.68453985     0.19219520     0.20437700    -1.21816573
Ti     -3.82889429     4.42860909    -7.71605451     0.46160675     0.20459674    -0.99086986
Ti     -3.91606509     4.35172649    -3.69082234    -0.79071409     0.75450328    -0.81411387
Ti     -6.18498220     8.71626654    -2.08747886     1.86601169    -1.03817896     0.35279406
Ni     -5.87513690     2.20146194    -7.88064413     0.79540761     0.01808342     0.14272427
Ni     -5.84454786     2.16345136    -4.07216616    -0.93208061     1.14963605     0.45581786
Ni     -9.83066677     6.44579027    -7.98040403    -0.45764926    -0.46886483     0.00935814
Ni     -9.65870667     6.52458913    -4.02513077    -1.73297825    -0.15381402    -0.87525371
Ni     -1.94834634     2.19418430    -7.96318312     0.24572114    -0.10564084     0.00758149
Ni     -5.92791878     6.60582457    -3.99982846     0.38537309     0.30073284     0.48975164
Ni     -2.03290969     0.08748734    -6.10299268    -0.42300885     1.17256182     0.46064052
Mo    -10.11121396     8.69410945   -10.20747697     1.52362012     0.27135868    -0.96234100
Mo     -5.77056770     0.15912173    -6.40303746    -1.54838208    -0.58927471    -0.09273963
O      -1.91390000     1.91637970    -1.94689207    -0.15583600     0.89988123    -0.46897449
O      -1.95435337     1.91409497    -6.12827545     0.39450348     0.08322578     0.66272172
O      -5.77879479     6.81393076    -2.09336378    -0.91458371     0.24974220     0.15393975
O      -5.98090137     6.93404564    -6.01103642     0.41184193    -0.45025339     0.90483065
O      -5.85451380     1.80406697    -9.76400347    -0.69554232     0.15961810     0.30578022
O      -5.88897334     2.07615913    -5.98612741    -0.08865232    -0.24101618    -0.72774621
O      -9.86085720     6.81344343   -10.08788435     0.53915636    -0.39790899    -0.11053406
O      -9.77725055     6.80219775    -5.96134600     1.83907423     0.27269343     0.10674745
O      -3.96663018     2.38673986    -3.97581783     1.45356929    -0.20826541     0.03984750
O      -3.83488889     2.51190650    -7.85015152    -1.00378025    -0.97423595    -0.68790142
O      -7.84420540     2.34381652    -3.96882000    -0.00003069     0.73143497     0.01166331
O      -7.84071491     2.37684935    -7.96079096     0.34198803     0.02514581    -0.13009367
O      -3.96084689     6.24548664    -3.98901184    -0.11659103     0.89520288     0.04460106
O      -3.83587846     6.35448160    -8.07825220    -0.46688521     0.44669644     1.49319273
O      -7.83255010     6.35241116    -3.94309164     0.99941641    -1.08215638     0.10037574
O      -7.81529306     6.31432612    -7.94762849     0.06889403     0.74128353    -0.54397212
O      -3.86921205     4.19170978    -1.97396026    -0.30987358     0.22258319     0.79414239
O      -4.08542598     4.46739362    -5.97683812     0.33579046    -0.20164238     0.10652212
O      -7.86288190     4.30815790    -9.90728166    -0.20964989     0.27823544    -0.09180597
O      -7.93751733     4.38264879    -6.15422029     0.47190406    -0.21543697     0.78957622
O      -3.97370356     0.04805567    -2.09260062    -2.01856394    -0.51798193     0.16263331
O      -3.96761188     0.26239366    -6.05921858    -0.01362513    -0.90356365    -0.15628890
O     -11.43165829     8.65332982    -6.05243506     0.16627062     0.93344517    -0.36813769
O      -3.99805915     8.68236950    -5.99752615    -0.36520115     0.11273638    -0.09275370
O      -1.99597274     4.35608017    -4.10550807     0.19143249    -0.48072107     0.16121555
O      -9.75582437     4.43176035    -4.11098872     0.53054567     0.15460500     0.80771028
O      -5.92060577     4.05784531    -3.99812011     0.00570242     0.23095735     0.12089422
O      -5.78319942     4.66719257    -8.12163370    -0.68754498     0.25673948     0.41245875
O      -1.98367625     0.37453580    -3.97493512     0.19932011     0.13073110    -0.64156806
O      -5.77687966     8.63498484    -8.09371855    -0.51681055    -1.56112497    -0.00639156
O      -5.94445674     0.32054229    -4.03288937     0.35081974    -0.80249857     0.72890371
O      -9.76018504     8.30004154    -8.22213378     0.23404493    -0.26407921     1.08332881
