# total energy = -630.86381327 eV

CRYSTAL
PRIMVEC
        0.00279571     0.02951795    -7.98606283
       -7.83802570     0.01298533    -3.99532603
       -3.92160916     8.71933433     0.00634407
PRIMCOORD
56 1
Li     -3.90367492     2.02919656    -1.84696360    -0.29145435     0.32708721    -0.12327370
Li     -3.87130123     2.06978339    -6.09413447     0.09821220     0.48317846     0.34707659
Li     -7.85770138     2.34819727   -10.04992980     0.47910923     0.23365760     0.32972197
Li     -7.74682342     2.21993145    -5.92172280    -0.52565353     0.34183498    -0.14575652
Li     -3.84541580     6.25235299    -1.92901358    -0.33686971    -0.09586312    -0.68000529
Li     -3.99943612     6.47789863    -5.83447475     0.40148427     0.02024036    -0.62580464
Li     -7.84016117     6.43866119    -9.93989946    -0.25527687     0.18832820     0.06704359
Li     -7.91549219     6.44024810    -6.11155046     0.01223773    -0.07996440     0.63027774
Ti     -2.03109314     2.20549347    -3.99438541     0.31920254     1.26854038    -0.00412736
Ti     -5.83470151     6.78551157    -7.88036786    -0.94828711    -1.53669447    -1.41613270
Ti     -7.73749914     4.39435293    -7.78253508    -1.30975215    -0.22684860     0.01686452
Ti     -8.04411951     4.46162617    -3.89013333     1.48112988    -0.53697950     0.15470063
Ti     -4.02971875     4.37047182    -7.69684665     0.76357304    -0.37970228     0.41123932
Ti     -4.08797721     4.32046948    -3.77680449    -1.00865193    -0.25467030    -1.50981677
Ti     -1.67855372     0.04385441    -2.11044934    -1.02039155    -0.98163002     1.04270685
Ni     -5.84112451     2.23258619    -7.92992074    -0.32128546    -0.52288194     0.19030727
Ni     -5.90325502     2.20888852    -4.10004310    -0.36997347    -0.10622971     0.84082249
Ni     -9.93819469     6.29222172    -8.08464716     1.14454293    -0.42009110    -0.28810609
Ni     -9.78444304     6.53691190    -4.04473394    -0.45707655     0.96380531     0.21494948
Ni     -1.89547830     2.29807468    -7.89685340    -1.45729629    -0.61184241    -0.64191084
Ni     -6.08054881     6.76571025    -3.97451124     2.10386272    -0.69646169    -0.15191466
Ni     -1.87905641     0.04415534    -5.95847371    -0.14843453    -0.45294368    -0.50831990
Mo     -5.92676194     0.06043445   -10.10801772     2.07144222     0.70448336    -0.63076871
Mo     -9.66108072     8.73450041    -6.29068103    -1.12699875    -0.01840455    -1.13758453
O      -2.03067443     1.98317540    -2.00288459     0.89952252    -0.60100405    -0.08456244
O      -1.88488741     1.89114612    -6.00300745    -0.15754185    -0.32820379    -0.33410146
O      -5.99323256     6.78436495    -2.03790414     0.81260768     1.51291391    -0.59194537
O      -5.92240464     6.87809075    -5.98455045     0.13374563     0.34038196     0.90973508
O      -5.87525364     1.99893394    -9.78509797    -0.25382264    -0.99498808    -0.56220843
O      -5.88151698     1.97155157    -6.03264842     0.45588204    -0.48762317    -0.19578881
O      -9.79359234     6.77555992   -10.07318789    -0.49097185    -0.47324976    -0.47228443
O      -9.83973954     6.80151249    -5.92462842     0.01779278     0.10025549     0.07646827
O      -3.91746473     2.26780679    -4.10389002    -0.07520345     0.28993371     0.38973534
O      -3.91100737     2.41131784    -7.97181247     0.08093313     0.59795360     0.55090642
O      -7.91282750     2.48937045    -4.01748231     0.61154552    -0.61878676    -0.06653836
O      -7.81220259     2.37440606    -8.01899848    -0.11349894     0.84501196     0.47785210
O      -4.02430271     6.21205316    -4.07389759     0.05049423     0.53876686     1.38429403
O      -3.97477251     6.37265356    -8.10496385     0.31214508    -0.21003427     1.44345135
O      -7.81283883     6.41505603    -4.18045229    -1.69273737    -0.12249064     0.52094094
O      -7.92550240     6.36134336    -7.97684574     0.21584666    -0.77187572    -0.07248834
O      -3.87102738     4.17107237    -2.07203424     0.12040267     0.42748991     1.24281288
O      -3.86154765     4.33284418    -5.91305016    -0.53556041    -0.00995813    -2.08957496
O      -7.81023412     4.51301074   -10.14517957    -0.20348506    -0.25753868     1.08272530
O      -7.86422202     4.39851091    -6.00524865     0.23253433    -0.06560560    -1.25071364
O      -4.06527373     0.07725056    -9.81308255    -1.15290132    -0.01615820    -0.44260136
O      -3.99568032     0.07033390    -6.22613826     0.78254729     0.15569767     0.35907763
O      -7.70853407     0.15874734    -5.96797480    -0.28660643    -0.14447039    -0.53446310
O      -7.72872192     0.04385498    -9.82720067    -0.21297982    -0.06895839    -0.42323503
O      -1.97066891     4.26828019    -4.21484377     0.33008755    -0.34176810     0.95249460
O      -9.91495660     4.63136268    -4.09723269    -0.23885117    -0.19356424     0.15632266
O      -5.97610121     4.07051583    -4.07547496     0.63713189    -0.18255214    -0.09762147
O      -5.89372769     4.65353966    -8.08484069     0.42936994    -0.23771761     0.45562907
O      -2.00937936     0.23389371    -3.95311302     0.20316645     0.32438541    -0.31320968
O      -5.72078628     8.53871274    -8.03057100    -0.07046563     1.60036045    -0.07450161
O      -9.79079781     8.64692592    -4.02003921     0.03184721     0.04997473     0.40989345
O      -9.87919534     8.07325457    -8.03524382    -0.31471566     1.15214250     0.74886172
