# total energy = -630.64277727 eV

CRYSTAL
PRIMVEC
        0.00279571     0.02951795    -7.98606283
       -7.83802570     0.01298533    -3.99532603
       -3.92160916     8.71933433     0.00634407
PRIMCOORD
56 1
Li     -4.02859560     2.33984966    -1.81804586     0.62265567     0.00462399    -0.47832802
Li     -3.91348345     2.16695079    -6.12818289     0.01283301     0.15755714     0.88169916
Li     -7.87856470     2.11953723    -9.95138760     0.14342917    -0.00189968    -0.06201733
Li     -7.98070337     2.49600171    -5.81820916     1.03168403    -0.51613933    -0.04424184
Li     -4.12830612     6.46441213    -2.07368261     0.93155717     0.02145347     0.46361655
Li     -3.88326746     6.90487400    -6.03316837    -0.51753243    -0.51861343     0.65498508
Li     -7.91771712     6.65699630   -10.00972597    -0.15830590    -0.08544996     0.64945657
Li     -7.70011463     6.30092646    -5.82503618    -0.83484154     0.00569255    -0.30488436
Ti     -1.98836073     2.25558619    -3.95944237    -1.55791173    -0.07435668    -0.66006177
Ti     -5.84157581     6.62757024    -8.04400808    -2.12948758     0.82362659     0.21040037
Ti     -7.85911841     4.32205772    -7.72546730     0.08179731     1.78893970     0.40571005
Ti     -7.83503598     4.29590593    -3.66998062    -0.30765150     0.21626424     0.50015377
Ti     -3.86745643     4.45757407    -7.69331613     0.40313826    -1.47596362     0.46162298
Ti     -4.07906013     4.48148254    -3.83979869     0.33671787    -0.89494104    -0.25348116
Ti     -5.73699533     8.71159525    -2.18423056     0.27014714     0.15272374     0.65586136
Ni     -5.89790536     2.46804797    -8.00788568     0.27365066     0.02146336     0.14184456
Ni     -5.82679594     2.19800391    -3.98122196    -0.52061467    -0.74633605    -0.26324281
Ni     -9.86109121     6.66295028    -7.89271300    -0.59959667    -0.34082489    -0.71213282
Ni     -9.78491775     6.41122494    -3.99215037    -0.44601549    -0.05677733    -0.43808691
Ni     -1.93513625     2.07809966    -7.91216838     0.08102477     0.14508486    -0.25820168
Ni     -6.00177481     6.60449869    -4.01077462     0.46434807     1.03137828    -0.10103348
Ni     -5.89788812     8.64055952    -6.08244214     0.13152630     1.27158457     0.26192301
Mo     -5.85165344     0.12396042   -10.30441119    -0.46519017    -0.09032261     0.49414642
Mo     -9.67452939     8.69604172    -6.29774832    -0.17793338     0.11881284     0.50388125
O      -1.86592481     1.99354736    -2.02793056    -1.28889542    -0.96787148     0.23603173
O      -1.96254114     1.74344604    -6.04013509    -0.25182228     0.41024205    -0.15240404
O      -5.94551391     6.78423593    -1.98104396    -0.62487716    -0.17607071    -0.38402444
O      -5.96458980     6.83609869    -6.10799740     0.86196994    -0.61300870     0.34188724
O      -5.86425996     2.06982970   -10.15604898    -0.26403728    -0.85893257     1.36275750
O      -5.86924922     1.82686767    -5.79984163     0.02381279     0.39749501     0.34750406
O      -9.89461073     6.95353365    -9.74939960     0.34607594    -0.01391534    -0.10757289
O      -9.95081890     6.85471684    -6.06370428     0.70873745    -1.07268731     0.53949695
O      -3.94516237     2.27772090    -3.95525211     0.68176594     0.68420307    -0.46788454
O      -3.91934381     2.49870332    -7.92873762     0.14280111    -0.20619401    -0.51929416
O      -7.75479435     2.37032054    -3.93457085    -0.46831785    -0.15074499    -0.35997409
O      -7.85440148     2.39479561    -7.98031656     0.01337870     0.09752127     0.50966810
O      -3.93095356     6.35748735    -3.89926690     0.43440622     0.67970004    -0.72300643
O      -4.00183066     6.37061895    -8.08520475     1.13887797    -0.02167662     0.65857715
O      -7.89952982     6.27762330    -3.87694266    -0.41188833     0.37915121    -0.38360800
O      -8.02651485     6.30080530    -8.03930680     1.41584238    -0.69949109     0.57141426
O      -4.11717829     4.20067258    -2.10567605     0.46804600     0.67362182     0.30000476
O      -3.92330994     4.28217625    -5.93112977    -0.05828819     0.04841677    -0.41014471
O      -7.84364559     4.14849975    -9.89600611     0.04970969     0.65469472    -0.64277125
O      -7.84200434     4.37332131    -5.89749564    -0.08717351    -0.23221348    -1.94847056
O      -7.99613625     8.70786841    -9.97161575    -0.55518616     0.70087818     0.21217414
O      -7.91539966     8.58146061    -6.26927592     0.02788946     0.27881178     0.70131820
O      -3.97262750     8.65769580    -2.00553942     0.77899375     0.07987115    -0.49930805
O      -7.82158937     0.04449527    -9.86586155     1.44797946     0.36976261    -0.99013685
O      -1.95443874     4.12443620    -4.05697920    -0.56763346    -0.49498591     0.28581329
O      -9.81919389     4.45983405    -4.04783346     0.34144670     0.91926262     0.26269117
O      -5.96535290     4.80702411    -4.13996349     0.06084204    -0.95325387     0.39817878
O      -5.84504206     4.36475842    -8.04827817    -0.74573733     0.83235859     0.40607098
O      -2.16607637     0.05611013    -4.05737777     0.36313005    -0.33168080     0.45766735
O      -5.90124830     8.50883837    -8.07599379     0.00343888    -0.37101621     0.13643844
O      -9.70624314     8.32555984    -4.04516868    -0.58613645    -0.23755409    -0.69603835
O      -5.92293547     0.65213048    -7.94271363    -0.35219097    -0.02671179    -2.01615515
