# total energy = -630.35357184 eV

CRYSTAL
PRIMVEC
        0.00285542     0.02004370    -7.95977623
       -7.82940539     0.00763210    -3.98158109
       -3.91729101     8.74642787     0.01461334
PRIMCOORD
56 1
Li     -3.95573473     2.60799596    -1.94316870     0.19372039    -1.09511727     0.30508977
Li     -3.94146093     2.20360637    -5.94427100    -0.19053395     0.19763789    -0.31371179
Li     -7.64117132     2.52139598   -10.00696901    -0.59568061    -0.44001451     0.53225163
Li     -7.84418044     2.12270274    -5.99573257    -0.04748447    -0.16384357     0.38177817
Li     -3.90921664     6.39331413    -1.77803590    -0.31493136     0.43389847    -0.78773416
Li     -3.86495151     6.45481406    -5.94738083    -0.26310477     0.06615152     0.77577849
Li     -7.98757578     6.45220803    -9.80642778     0.49849929     0.05431287    -0.61584486
Li     -7.89009363     6.41936151    -5.85844139     0.07396607     0.13793412    -0.20824856
Ti     -1.96111591     2.19979358    -4.14474707    -0.85870752     0.70943240     0.66316772
Ti     -5.95916867     6.69538794    -7.86398385     0.22798248    -1.81943578    -0.79867558
Ti     -7.90511108     4.34437442    -7.60108021     0.99050945     1.07796002    -1.92393723
Ti     -7.65464885     4.39717594    -3.70387195    -1.80861748     0.21706800    -0.15045157
Ti     -3.91582603     4.46554073    -7.60990625    -0.46542527    -2.29475379     0.85733682
Ti     -4.02854888     4.44027252    -3.66347992     1.30980720     0.86792503    -2.12994479
Ti     -5.91777987     8.67608418    -2.16835262     0.82084288     0.27639039     0.78628130
Ni     -5.79837140     2.36343840    -8.01196509    -0.96551583     2.59777805     0.17318631
Ni     -5.92782511     2.14921599    -4.06407648     0.31833739     0.26230695    -0.07960390
Ni     -9.84209839     6.61752227    -7.89896920    -0.41228571    -0.12930343    -0.00266368
Ni     -9.82957712     6.32241197    -3.92063570     0.59126042     0.16918536     0.07657673
Ni     -1.99304436     2.33311804    -8.05636242     0.10237189    -0.39484928     0.11581201
Ni     -5.84762128     6.69142446    -3.99811876    -0.93244389    -0.17327876     0.39255055
Ni     -5.77236657     8.72326941    -5.95500063    -0.12465497    -1.16537949    -0.21721212
Mo     -9.81229751     8.75900808   -10.18984736     1.95953370    -0.46473386     0.56819720
Mo     -9.72714687     8.69314539    -6.34203484    -2.49465788     2.04604467    -0.32393492
O      -2.06468918     1.89440272    -2.00974501     0.17847912     0.02246802     0.26447623
O      -1.80911350     1.75916228    -5.99754106    -0.52800647     1.18091967    -0.38864626
O      -5.93459630     6.75780047    -2.01197016     0.32156494    -0.09679429    -0.33678712
O      -5.89593949     6.81820514    -5.93132023     0.25939334     0.49104529     0.77455438
O      -5.81554285     2.07464560   -10.00605525     0.29569773    -0.47960940    -0.82787094
O      -5.91610315     1.98540644    -6.00733127     0.25604630    -0.43447289     0.29644533
O      -9.82632583     6.72263147    -9.93453967    -0.25664633     0.96586955     0.37311548
O      -9.86836707     6.91347503    -5.88857852     0.08804770    -1.77633987    -0.26497211
O      -3.86136632     2.29452337    -4.02852542    -0.29542916     0.98781604     0.36653758
O      -3.98643860     2.51466486    -7.90266741     1.24539071    -0.56724811    -0.41300111
O      -7.90476812     2.36388137    -3.95000177     0.34953320     0.81290927    -0.18075090
O      -7.71944621     2.52054818    -7.99862396    -0.80188352    -1.00138239    -0.16263208
O      -3.97412078     6.49211538    -3.84677770     0.89444200    -1.54555263    -0.55543811
O      -3.95668110     6.28873370    -7.88380795     0.26381196     1.98647285     0.06379925
O      -7.87604561     6.33874810    -4.04619864     0.09534954    -0.56912365     0.88982113
O      -7.84294419     6.32113002    -7.96111971    -0.70189100     0.16250151     1.32458056
O      -3.89477635     4.45921609    -1.92727575     0.01709402    -0.16566903    -0.05173278
O      -3.88898651     4.30893447    -5.84836298    -0.00148488     0.66349390     0.17783940
O      -7.99566083     4.46999853    -9.91708673     0.73812021    -0.43109434    -1.01363496
O      -7.85921608     4.27471396    -5.88721079    -0.36957463     0.58943245     1.20148225
O      -7.92517854     8.54320838    -9.76439948    -1.00107445     0.70310465    -1.13251267
O      -8.01482071     8.74888102    -6.04933462     0.81270072     0.00783349    -0.10181662
O      -0.03251016     0.07529411    -2.21041247     0.64883282    -0.54187854     0.60301130
O     -11.54146004     8.73311213    -9.96748764    -1.15769833    -0.54076204     0.50641648
O      -1.99732799     4.15846907    -4.00371687    -0.01154962    -0.28987743     0.51429235
O      -2.03975931     4.23700782    -7.96317330     1.58690821     0.60555094    -0.29965117
O      -5.83084399     4.07539293    -4.01462971    -0.50956980    -0.21786446     0.20165935
O      -5.83694291     4.46836166    -7.94600982    -1.25155558    -0.56789006     0.10531807
O      -2.03028424     0.25278489    -4.01239593     0.02138822    -0.53045169    -0.85082950
O      -5.79761121     8.43189809    -7.97231726    -0.00649251     1.99265331     0.41262778
O      -5.99198746     0.26856826    -4.06415918     0.70455294     0.16752832    -0.29098567
O      -5.91168404     0.65095976    -8.12658222     0.33341217    -2.59657206     0.57092567
