# total energy = -630.71364758 eV

CRYSTAL
PRIMVEC
        0.00285542     0.02004370    -7.95977623
       -7.82940539     0.00763210    -3.98158109
       -3.91729101     8.74642787     0.01461334
PRIMCOORD
56 1
Li     -3.92551734     2.22636115    -2.01376625    -0.20379757     0.15606110     0.30494541
Li     -3.91412324     2.06654371    -6.22397993    -0.11391834    -0.13701359     1.08837069
Li     -7.73116134     2.31668120    -9.90913152    -0.43084546     0.28549905    -0.32498380
Li     -7.94503214     2.40074384    -5.99226757     0.87230757    -0.20921129     0.41156332
Li     -3.86128726     6.37840427    -1.87842164    -0.21315780    -0.29811238    -0.62991051
Li     -3.93467258     6.38966855    -5.95598012     0.15426325    -0.05194185     0.58438960
Li     -8.02849120     6.44814748    -9.76659107     0.55026295    -0.17378879    -0.56818017
Li     -8.07153003     6.53616568    -5.85422357     1.74868250     0.01601927    -0.04922385
Ti     -2.01112953     2.28389096    -4.03227714     0.76966165     0.14392307    -0.53969776
Ti     -5.75766912     6.80039321    -7.92633338    -1.30480409    -0.06297726     0.80385566
Ti     -7.77225975     4.47316707    -7.71801864     0.29997886    -0.03223043     0.07130787
Ti     -7.64823546     4.49675765    -3.81446503    -0.30037722    -1.05280909     1.53388968
Ti     -3.67816454     4.23919214    -7.83259445    -1.64388857     0.89975766     0.52007115
Ti     -4.00408014     4.34475939    -3.91031457     1.05609446     1.21387593     1.69411130
Ti     -6.06207464     8.68310931    -2.11439715    -0.39864007     0.90507668    -1.35432981
Ni     -5.87263231     2.38425355    -8.03140220     0.09504937    -1.29194267    -0.10357229
Ni     -5.94473457     2.20567486    -3.96984952     0.83664511    -1.33469070    -0.93393371
Ni     -9.89035665     6.53341894    -7.72418551     0.12383483    -0.19720269    -0.08922829
Ni     -9.79132489     6.35516719    -3.94168160    -0.32296617     0.58559242     0.33802302
Ni     -1.84275275     2.24429222    -8.03253878    -0.29499193    -0.17985858     0.58045697
Ni     -5.99036023     6.68433104    -3.97170343     1.05620967     0.30425426     0.38218185
Ni     -2.01768664     0.04046978    -6.00155819     0.89460381    -1.04545839     1.19597792
Mo     -9.90455593     8.65346346   -10.06846061    -0.53605037    -0.39508981    -0.49177874
Mo     -9.86159299     8.74471526    -6.32655167    -0.32623270    -0.04966965     0.28799707
O      -1.94478760     1.87377382    -2.04195229    -0.08627442     0.05967654     0.10501284
O      -1.89640142     1.85762758    -6.02319698    -0.44442316     0.35975751     0.26389972
O      -5.84751117     6.80931592    -1.96475898    -0.28102249    -0.09839505     0.14514741
O      -5.82801189     6.92204350    -5.86624768    -0.69475566    -0.40282788    -0.71173290
O      -5.86830513     2.01257156    -9.99105309    -0.06136812     0.01080672    -0.30603440
O      -5.89527929     2.00483205    -5.97330306     0.15642471    -0.50678962    -0.07737285
O      -9.83346720     6.78637671    -9.59327418    -0.64589742     0.67189183    -1.03732389
O      -9.78232088     6.80261808    -5.85929622    -1.56188754     0.40289730    -0.37826970
O      -3.89159150     2.34027265    -3.91448050     0.07088267    -0.33253723    -1.10661772
O      -3.76904372     2.38564853    -8.01285996    -0.56111040    -0.42646856    -0.47089091
O      -7.83759585     2.42194258    -3.98429633     0.17345825     0.65653216    -0.03117166
O      -7.77492538     2.51240346    -7.95796214    -0.90470786    -0.23264672    -0.06647601
O      -3.99544657     6.32023829    -3.78893757     0.18479599     0.03670300    -1.22289457
O      -3.94647428     6.32548304    -7.98486902     0.48998081    -0.30823803     0.61043040
O      -7.91398497     6.40498628    -3.83562364     0.48025934     0.39213193    -0.86716367
O      -7.81476347     6.42775265    -7.93452640     0.57637040    -0.52236077     0.88818006
O      -3.77991165     4.31610285    -2.11732279    -0.27300006     0.07790225     0.34420129
O      -3.71480555     4.37154543    -6.04969751    -0.45513209     0.13872099     0.07222967
O      -7.79664187     4.48617680    -9.97845438     0.22411820    -0.35387366    -0.49047005
O      -7.84896322     4.46384874    -5.92848920    -0.38616153     0.20718104    -0.66861178
O      -8.00661500     8.67040026    -9.94364470     2.70292884     0.14775259     0.12229675
O      -8.06492749     8.71164673    -6.00099846     0.37216979     0.27739714    -0.17189631
O      -7.72884401     0.09067896    -6.03602568    -0.14874850    -0.82747170     0.11212552
O     -11.65592210     8.70017868    -9.95081747    -0.80626955    -0.02925414     0.13723054
O      -1.94430900     4.23361630    -4.05824806     0.17949674    -1.28370261    -0.04907970
O      -9.66499419     4.45176962    -3.97319271     0.29796374    -0.22132202    -0.73087804
O      -5.80865205     4.03273665    -4.18092734    -1.11000689     0.42355606     0.21739981
O      -5.85215252     4.18983861    -7.96396779     0.48144993     1.25276849    -0.05573958
O      -1.92187417     0.18494978    -4.03909461    -0.51046454     0.57793689     1.07491425
O      -5.74493425     8.61357825    -7.87231729    -0.41720101    -0.25841248    -1.23258981
O      -5.94683232     0.21708801    -3.91541084     0.18588431     0.66408397    -0.52338482
O      -5.94096877     0.49070339    -8.16154925     0.37588388     1.16771664     1.38642908
