# total energy = -630.40847408 eV

CRYSTAL
PRIMVEC
        0.00285542     0.02004370    -7.95977623
       -7.82940539     0.00763210    -3.98158109
       -3.91729101     8.74642787     0.01461334
PRIMCOORD
56 1
Li     -3.96655487     2.40984490    -1.83818662     0.16145736    -0.45209254    -0.52979384
Li     -4.05348184     2.16763339    -5.96462577     0.25263112     0.04903171     0.20486830
Li     -7.91070514     2.26027431    -9.92876311     0.39912644    -0.21080302    -0.30445137
Li     -7.89453241     2.15715557    -5.93507211    -0.14451690    -0.27371869     0.16224998
Li     -3.99456319     6.60165364    -1.94779886     0.46711371     0.24137106     0.29510427
Li     -3.94428341     6.75075217    -5.79448351     0.46408577    -0.19197248    -0.36490468
Li     -7.84697996     6.36034145    -9.95092248    -0.01599595     0.10073195     0.17829664
Li     -7.85063693     6.51923180    -6.08039109    -0.11439153     0.23496206     1.16544588
Ti     -1.95746289     2.20805959    -4.09239639    -2.20962275     1.32520996     0.38709949
Ti     -5.83507939     6.72334723    -7.86917878    -0.23162538     1.04738263    -0.67105488
Ti     -7.72265571     4.30351324    -7.64748253    -0.63027966     0.39419950    -2.28084258
Ti     -7.71437399     4.29550347    -3.67090776    -0.33414136     2.64304657    -0.19507529
Ti     -3.69027100     4.36472375    -7.58022876    -0.99969325    -0.21450000    -0.22611466
Ti     -4.04706875     4.55100188    -3.61002632     1.80326270    -2.22943418    -3.54355874
Ti     -6.08180699     8.72243279    -2.16259169    -0.38827806    -0.67214835     0.66936991
Ni     -5.93147045     2.43891156    -8.05216058     0.84115414    -2.81726568    -0.38791933
Ni     -6.03222627     2.24081959    -3.95898347     1.98428868    -0.51947987    -0.48300939
Ni     -9.77721127     6.49944763    -7.86364303     0.93453818     0.26434289    -0.41376153
Ni     -9.79335734     6.37575722    -4.17856071     1.21241395     1.65878444     0.20985739
Ni     -1.95678931     2.18424755    -7.91335959    -0.72705051    -0.53863320    -0.34811698
Ni     -5.83436734     6.55292759    -3.98305420    -1.06118634     0.39999569    -0.01624089
Ni     -5.94784245     8.74173234    -5.95575084     0.33745266    -0.23642285    -0.63108717
Mo     -5.91329183     0.04304550   -10.24096289    -0.62949596    -0.46793502    -0.78565704
Mo     -5.94568266     0.05248533    -6.33954621     0.13830214    -0.44347432    -1.86977733
O      -2.02158194     1.82355068    -1.94948277     0.85451164     0.87999884    -0.24794904
O      -1.97021613     1.84415003    -6.06091294    -0.22798534    -0.13945476     0.62371710
O      -5.84378611     6.73050604    -1.96718610    -0.66505341     0.67194490    -0.22979463
O      -5.88549343     6.88133547    -5.89379425     0.02772716     0.13811638    -0.44323227
O      -5.93896071     2.04060737   -10.08411599    -0.06096952     0.25273920     0.03393937
O      -5.96892308     1.88051394    -5.83004234    -0.04066376     0.66723452     0.21011602
O      -9.66264452     6.99019221    -9.66544801    -0.54227770     0.09300226    -0.22306967
O      -9.90034320     6.84364428    -6.06901326     0.68187988    -0.88317683     0.97062813
O      -3.93900987     2.32437034    -4.01541586    -0.20158160     0.89739385     0.47684454
O      -3.91906051     2.45562703    -7.91059254     0.16820524     0.21397587     0.14451675
O      -7.90981815     2.48453360    -4.03621671    -0.04897606    -1.25396067     0.29892514
O      -7.87595083     2.31634043    -8.05078541     0.51437531     0.56940919     1.11524655
O      -3.76931738     6.39900867    -3.95444550    -0.72118548     0.05492872     0.33979149
O      -4.01097512     6.27898037    -7.88621784     0.86772927     0.08461245    -0.09926322
O      -7.82398617     6.42649947    -4.07315148    -0.06983070    -1.39254493     0.70922408
O      -7.74835031     6.29537694    -7.93648433    -0.36572777    -0.04289192     0.03657385
O      -3.68223684     4.37097637    -1.96106674    -0.20302391    -0.03636274     2.13519092
O      -3.73067450     4.38285929    -5.84619654    -0.24430704    -0.08492126     0.14416741
O      -7.84509033     4.37903661    -9.85494242     0.27163684    -0.08348527    -0.86016546
O      -7.92667408     4.52358088    -5.96639437     0.05947848    -0.63298680     1.52342530
O      -4.04076618     0.18171557    -2.03453744     1.53258319    -0.48908753     0.25726616
O      -8.07499678     8.65725429    -6.13493014     0.81612863     0.27707830     0.13313416
O     -11.65229887     8.67053819    -5.92998205    -0.45445493     0.32323725    -0.51627874
O     -11.63115084     8.75851302   -10.00312507     0.03445366     0.09379988    -0.38110427
O      -1.91872899     4.07342274    -3.98424692    -0.18395292    -0.48881202     0.08284842
O      -9.63629336     4.62327088    -3.87452449    -0.97548130    -0.62929232    -0.50921362
O      -5.84802086     4.53368831    -4.10208168    -0.58624055     0.31509454     0.56091127
O      -5.81646604     4.24822256    -7.97941782     0.24954152     0.92499648     0.55259005
O      -1.99657349     0.01927739    -4.02072535     0.09302661     0.63467387    -0.01120401
O      -5.67752508     8.57443579    -7.98846838    -0.95844700    -1.13910740     0.30790051
O      -9.63208637     8.32969663    -4.03901582    -0.99728957    -0.17463292     0.35587404
O      -5.92989292     0.51802782    -8.18454656    -0.15468564     0.82634201     2.28831535
