# total energy = -630.51274286 eV

CRYSTAL
PRIMVEC
        0.00279571     0.02951795    -7.98606283
       -7.83802570     0.01298533    -3.99532603
       -3.92160916     8.71933433     0.00634407
PRIMCOORD
56 1
Li     -3.92346135     2.38868459    -2.01126310    -0.10965571    -0.64354817     0.66612471
Li     -3.98810702     2.30958890    -6.02342607     0.34179278    -0.03372333     0.16518946
Li     -7.75539899     2.21144612    -9.94741996    -0.03766245     0.09314227     0.11791790
Li     -7.74785068     2.21927002    -5.80575695    -0.97365061     0.07575879    -0.37901690
Li     -3.89732275     6.88559794    -2.08421034     0.31677685    -0.67852812     0.34890530
Li     -3.85989789     6.36918988    -6.01078383    -0.16190430     0.16486717     0.49172629
Li     -7.91223034     6.23767455   -10.01561132     0.39387573     0.82710839     0.12698897
Li     -8.00464527     6.27409113    -5.93144336     0.61553517     0.23175360     0.27857252
Ti     -2.09171508     2.15226383    -3.99331941     1.20542092     0.45741177     0.19008652
Ti     -5.95750993     6.52773498    -7.94161876     1.00453739     1.54244239     1.03513304
Ti     -7.85341679     4.27309018    -7.72032226    -0.84533186    -0.39521066    -0.71509379
Ti     -7.90072095     4.35835687    -3.69124440    -0.25062928     0.14961520    -1.50128742
Ti     -3.97936514     4.40147193    -7.74833469     1.31100078    -0.27310522     0.03429531
Ti     -4.04960931     4.46132829    -3.65679119     0.50604934     0.24215638    -0.87373034
Ti     -5.95926399     8.71450981    -1.99200274    -1.02086781     1.37137938     0.24145075
Ni     -5.78993753     2.20011335    -7.85341392    -0.77342931    -0.23883586     0.20710378
Ni     -5.87535582     2.46763395    -4.16715242    -0.28425902     0.64385322     1.08725931
Ni     -9.82540636     6.36514679    -8.06539153     0.79233924    -0.36075101     0.38992586
Ni     -9.83243655     6.50039071    -4.06611016     0.98434927    -1.61972411    -0.09319181
Ni     -2.01602980     2.24723233    -7.96813783     0.55686665     0.02613755     0.10731467
Ni     -5.80270040     6.53568668    -4.11423090    -1.28772719     0.28467022     0.51325053
Ni     -1.90771827     0.14283853    -6.09704308    -0.32836772    -0.88952040     1.08654428
Mo     -9.82905880     8.72986591   -10.18246481    -0.37807589     1.14574663     0.77225140
Mo     -5.90822127     0.06883089    -6.28608710     2.00063670    -0.23576687    -1.16936842
O      -1.90597161     2.12874836    -2.12351080    -0.28236029    -1.22261736     1.12224531
O      -2.01099369     1.97172686    -6.06049140     0.14381138     0.03539300    -0.91142440
O      -5.73205414     6.87305128    -2.25989440    -0.93514949    -0.40884537     1.25327300
O      -5.89339526     6.97312857    -5.90302253     0.16970809    -0.23010544    -2.35182713
O      -5.79743492     1.83356143    -9.62954142    -0.06667457    -0.47895491    -1.35996811
O      -5.92508697     2.06948495    -5.98547886     0.29342595    -0.61185051    -0.31761142
O      -9.73614587     6.74433613   -10.05302748    -0.48383865    -0.23398053     0.18924489
O      -9.79648707     6.68859830    -6.02387685    -0.81574828     0.87335557     0.25953223
O      -3.97164684     2.54644243    -3.95859833    -0.12641761    -1.54293812    -0.55218560
O      -3.91824070     2.40414901    -8.01850015     0.12192128     0.40040850     0.68754678
O      -7.77497023     2.42177081    -3.87060435    -0.14920893     0.01959555    -0.84209935
O      -7.81534017     2.40823213    -8.01389633    -0.09281381    -0.07229090    -0.13483919
O      -3.86210862     6.32290424    -3.97071854    -0.17595179     0.82362042    -0.70397744
O      -3.99535688     6.38511543    -7.92711778     0.26354033    -0.38704839    -0.50865425
O      -7.76653211     6.36996190    -4.01998513    -0.44847434    -0.97072098     0.18177275
O      -7.81693171     6.26457387    -7.98557277    -0.87705850     0.48959070    -0.13288486
O      -3.99024505     4.25196102    -1.93954574    -0.26633048     0.40905800     0.87855563
O      -3.97366750     4.30575747    -5.97568374     0.13241649     0.25407912    -0.98861219
O      -7.61914012     4.38718218    -9.95428866    -0.36393076    -0.10385160     0.45676487
O      -7.83054329     4.13907057    -5.99340470     0.14179157     1.19000809     0.54914442
O      -3.88483362     0.13827488    -1.99359718    -0.00434850    -0.54537529    -0.21227584
O      -4.18404282     0.14734195    -5.92545873     0.84445945     0.22597036    -0.23322168
O      -7.69844838     0.10743018    -6.01159966    -1.05565681     0.13159984     0.43836748
O      -7.71083948     0.19661324   -10.18532387     1.22812706    -0.71586301     0.17312767
O      -2.05347293     4.38168054    -4.01981057     1.06718262     0.05774141    -0.10108968
O      -9.80030103     4.55414178    -4.00200239    -0.42031814     0.19336074     0.14410467
O      -5.91716442     4.54193227    -4.23455515    -0.07291748    -0.42900304     0.72637068
O      -5.89482835     4.62501641    -8.01009196     0.10222860    -0.12895707     0.26224567
O      -1.90137549     0.34225597    -4.04409911    -0.19223913    -0.62592358    -0.37286854
O      -5.80267095     8.49654125    -8.06523435    -0.54337941    -0.23763115    -0.20154308
O      -9.62734160     8.28367605    -3.97007989    -0.70915171     1.68863495    -0.35041180
O      -9.74831250     8.18111751    -8.08138583    -0.22188896     0.53466707    -0.05628199
