# total energy = -630.78985103 eV

CRYSTAL
PRIMVEC
        0.00285542     0.02004370    -7.95977623
       -7.82940539     0.00763210    -3.98158109
       -3.91729101     8.74642787     0.01461334
PRIMCOORD
56 1
Li     -3.91234477     2.23262983    -1.94842579    -0.00792817     0.20861441     0.53154978
Li     -3.80737313     1.90165032    -5.81604182    -1.26914280    -0.07345078    -0.80484095
Li     -7.83675746     2.11637318    -9.98916780    -0.04437208     0.27314674     0.43001428
Li     -7.83941596     2.07201019    -5.90805374     0.06862868     0.08170532    -0.25835819
Li     -3.98893737     6.36202302    -1.86858125     0.05900116     0.01767839     0.20428996
Li     -3.97873757     6.47629715    -5.70872343     0.29795246    -0.15228190    -0.15365524
Li     -7.95898037     6.51247022    -9.99273471     0.12796721    -0.03404469     0.68549103
Li     -7.74285570     6.57771775    -5.89233797    -0.47020656    -0.01451692     0.32180530
Ti     -2.07686145     2.31796505    -4.08997622     1.94237738     1.52223097     1.83972794
Ti     -5.84013595     6.94688565    -7.78361704    -1.50615690     0.78326298    -0.38511859
Ti     -7.69972794     4.33730456    -7.63343271    -0.97168312    -0.11507499    -1.05646158
Ti     -7.83519330     4.44381628    -3.73874807    -0.10108531     0.09922774     1.09435307
Ti     -3.85346293     4.30461089    -7.55916052    -0.22613778    -0.57679578     0.91962942
Ti     -4.02503191     4.46969942    -3.67220320     1.04748158    -0.51092161     0.57015930
Ti     -6.17325456     8.72347091    -2.18718952     0.04277797     0.78307838     0.34023130
Ni     -5.78551884     2.29405178    -7.91907542    -0.00586541    -1.99795241    -0.54562984
Ni     -5.94280179     2.40388320    -4.05245807     1.63949735    -0.71734621     0.63529614
Ni     -9.78721849     6.51128663    -7.86141832    -0.06991249    -0.02179700    -0.48529629
Ni     -9.86932650     6.44039336    -4.08554980     0.67066677     0.16760084     0.20961595
Ni     -1.79436125     2.16041398    -7.93054953    -1.67859157    -0.70134218    -0.36320298
Ni     -5.88978953     6.64991110    -3.83974747     0.04967295    -0.48936867    -1.16320741
Ni     -5.86772580     8.68981331    -5.83683903    -0.44005366    -0.18847692    -0.87044267
Mo     -9.94690585     8.73578925   -10.38687562    -0.08142362    -0.02119293     1.57184705
Mo     -9.75461735     8.67963379    -6.43821213     1.66130026     0.02250522    -0.03509968
O      -1.90433621     1.93247659    -2.01387198    -0.28730363    -0.45870069     0.26937960
O      -1.99369572     1.82527813    -5.91530287     0.81531986    -0.02604833    -1.39409939
O      -5.86385765     6.87383249    -2.02035415    -0.10888907    -0.64457233     0.95030283
O      -5.86501641     6.83906484    -5.75022555     0.30840991     0.29249000    -1.01032347
O      -5.90730212     1.84740891   -10.06986867    -0.10294372     0.60477069    -0.63809290
O      -5.83080606     1.87971665    -5.88378584     0.40793588    -0.04424542    -0.50284999
O      -9.92899088     6.89804977    -9.78807907     0.78253267     0.15492516     0.37465398
O      -9.76079612     6.80854908    -6.03358153     0.38060631    -1.05524711     0.30051971
O      -3.96039847     2.41704216    -3.86573030    -0.42701440    -0.05926259    -1.12581881
O      -3.74056488     2.36863340    -7.88441825    -0.16243570     0.84563638     0.32779639
O      -7.75111807     2.40315559    -3.95514796    -1.01078338     0.69579186    -0.06791732
O      -7.92735211     2.43445138    -8.01708180     1.12348622     0.08007186     0.31987855
O      -3.89647969     6.39206803    -3.72347938     0.45098498     0.20754649    -1.03004443
O      -4.10767270     6.32462024    -7.89882161     1.12465389    -0.44342069     0.04386968
O      -7.80740805     6.43305214    -3.93494702    -0.40474780    -0.75544907    -0.15607072
O      -7.69835728     6.35301186    -7.91793824    -0.15495112    -0.40657059     0.34644295
O      -3.95357451     4.29229081    -1.90053072     0.15854301     0.38126528    -0.41856515
O      -3.77713280     4.46378182    -5.76617118    -0.57300946    -0.14538695    -1.41530077
O      -7.88278085     4.51238978    -9.91623526     0.21632645    -0.32772877    -1.03644926
O      -7.88625351     4.39097441    -5.90310426    -0.12631199     0.20738847     0.36173505
O      -7.98751891     8.68223799    -2.08377674    -0.15026020     0.12721332    -0.58959893
O      -7.78323917     8.63188580    -6.07730470    -0.75525085     0.37927434     0.00001385
O     -11.46787886     8.72351649    -6.20035244    -1.09146045     0.14068978     0.38731704
O      -3.92799003     8.66587625    -6.22931466    -0.03490138     0.66548404     0.33926727
O      -1.92358335     4.25963394    -4.03811747    -0.31134959    -0.86401327     0.52167668
O      -9.85365605     4.64323983   -11.85764958     1.28603660    -0.21780721    -0.74979412
O      -5.86511665     4.47997521    -4.00031591    -1.26540395    -0.13556851    -0.06351169
O      -5.79356695     4.04910719    -7.82418568    -0.35807116     1.66168068    -0.02449495
O      -1.91513393     0.25799538    -3.98890862    -0.14195262     0.04989158     0.44317145
O      -5.91525761     8.69514247    -8.20130197     0.66815210    -0.26935591     0.88120211
O      -9.70938310     8.31442028    -4.14802016    -0.52194957     0.22717062    -0.27380979
O      -5.72554863     0.44246094    -8.23900387    -0.59369659     0.19975344     1.40020273
