# total energy = -630.95177483 eV

CRYSTAL
PRIMVEC
        0.00279571     0.02951795    -7.98606283
       -7.83802570     0.01298533    -3.99532603
       -3.92160916     8.71933433     0.00634407
PRIMCOORD
56 1
Li     -3.94597473     2.14814966    -2.00037368    -0.21853328     0.20800694    -0.00822641
Li     -3.96076818     2.43527922    -6.03900471    -0.25370919    -0.18469022     0.10930988
Li     -7.84811022     2.41260985   -10.08740136    -0.06376550    -0.16177212     0.60438396
Li     -7.83017471     2.33789002    -5.79912298    -0.00628948    -0.56724632    -0.68749692
Li     -3.82301572     6.79275339    -1.97527195    -0.36348846    -0.49435509     0.15228636
Li     -3.97613846     6.27926328    -5.83744917     0.56223180     0.05472687    -0.04510558
Li     -7.85887877     6.40581984    -9.86953530    -0.19222948     0.28985882    -0.05153667
Li     -7.80188708     6.48019677    -5.92975982     0.57617351    -0.00866820     0.23770080
Ti     -2.08948329     2.18988424    -4.11877676     1.33808013    -1.62061564    -0.03674038
Ti     -5.73687282     6.52620195    -8.02029439    -0.41140439    -0.85835645     0.08034105
Ti     -7.94169333     4.32438918    -7.71781123     0.91621646    -0.15376680    -2.12526078
Ti     -7.78155665     4.43859092    -3.69563873     0.94294301     0.59983933    -1.61896921
Ti     -3.66198679     4.24558532    -7.86477327    -0.72227939     0.82535709    -1.06095910
Ti     -3.95897953     4.43187300    -3.69617466    -0.58980576    -0.11074934     0.02242283
Ti     -2.24666043     0.06466978    -1.96408920    -0.41454382    -1.01935172    -0.70695658
Ni     -5.90671613     2.40795261    -7.98820155     0.07444435    -0.47343767    -0.65698784
Ni     -5.87704245     2.16395132    -4.02819061    -0.09406236     0.24095709     0.04445438
Ni     -9.79558179     6.70889889    -7.83754843     0.24538929    -0.93836763    -0.18171375
Ni     -9.75582828     6.47677874    -4.00669233     0.22034493     0.79655184    -0.14079531
Ni     -2.05081922     2.09567839    -7.99872533     0.81818835     0.11415739     0.12081514
Ni     -5.81945662     6.70330132    -3.91807875    -0.39406564    -0.24122624    -1.04707319
Ni     -5.98086396     8.73109143    -6.07773581     1.22963470     0.27166870     0.71150572
Mo     -6.13858215     0.04635064   -10.24807251     1.74789770     0.54446973     0.87363303
Mo     -9.68140253     8.62805786    -6.31551023    -0.50197879     1.45839057    -0.82189271
O      -2.05812201     1.92353674    -1.95972103     1.02963132     0.51780789    -0.05193370
O      -2.06809613     1.89892620    -6.03710348    -0.22982439    -0.21416244    -0.98990446
O      -5.90117224     6.79628638    -2.00559822     0.19154936     0.46646076     0.53948164
O      -5.69795763     6.91151956    -6.05374323    -1.10548116    -0.11417310     0.12414587
O      -5.76863657     1.98490888   -10.13377620    -1.81697990    -0.51861566    -0.11187256
O      -5.77083386     1.82099128    -5.89472370    -0.27280384     0.97131242     0.40627811
O      -9.85435152     6.96572720    -9.64949051    -0.01648276     0.17432098    -0.73190681
O      -9.66800005     6.73222355    -5.98918013    -0.43857089    -0.65551028     0.11387154
O      -4.00409503     2.46215438    -4.03009009     0.19621813    -0.70289289    -0.40373832
O      -3.94434716     2.34514284    -8.10249647     0.05903773     0.40644744     1.28247850
O      -7.85296796     2.53107147    -3.98688315     0.11001107    -1.17089215     0.42010159
O      -7.90571632     2.36760034    -8.07684158     0.31301530     0.67407522     0.22616272
O      -3.86400672     6.37392060    -3.82385845     0.68092308     0.45544750    -0.49691121
O      -3.86497148     6.30272181    -8.12490177     0.12697571     0.05129948     0.51901879
O      -7.86071489     6.44715121    -3.93315598     0.27905451    -0.62472934    -0.04945262
O      -7.79949681     6.21577475    -7.89140369    -0.25171218     1.28858611    -0.29972038
O      -4.05098733     4.14584109    -1.99240443     0.45147160     0.61699504     0.17676614
O      -3.76595493     4.42723998    -6.13457623    -0.29379745    -0.52367188     1.20062926
O      -7.88989771     4.42542226    -9.95627683     0.18731296    -0.23551094     1.03720461
O      -7.86999840     4.18275023    -6.03478878     0.25351990     0.56310573     2.04544178
O      -4.00825269     0.05490919    -2.11973693     0.26676256    -0.26262718     0.57724569
O      -7.83851212     8.56291290    -6.06284881    -0.53431673     0.22955546    -0.16476146
O     -11.43477315     8.62628365    -5.92336999    -0.52979823     0.40135163    -0.16798321
O      -7.85223562     0.13029622   -10.10369241    -0.92234832     0.30910710    -0.26921022
O      -2.03321285     4.05780175    -4.03057127     0.08347732     0.96008671     0.20621301
O      -9.64328693     4.62478998    -4.07677777    -0.87279401     0.09803512    -0.31370258
O      -5.84687263     4.77963797    -4.12084976    -0.20703079     0.14971540     0.36166068
O      -5.77665317     4.41731533    -8.00393182    -0.93055479    -0.18578716     0.26186884
O      -1.85636755     0.23706828    -4.11089845    -0.55680683    -0.76092603     1.37063023
O      -5.88242259     8.48583164    -8.04489209    -0.04226775    -0.32486620    -0.15690008
O      -9.76282012     8.46741546    -3.99209954     0.05326431    -0.75690398    -0.41674341
O      -5.97095902     0.51575428    -8.10467208     0.51685717     0.49129550     0.06150653
