# total energy = -630.38371984 eV

CRYSTAL
PRIMVEC
        0.00279571     0.02951795    -7.98606283
       -7.83802570     0.01298533    -3.99532603
       -3.92160916     8.71933433     0.00634407
PRIMCOORD
56 1
Li     -3.99756701     2.19594190    -1.87702848     0.29057031    -0.10218910    -0.32452977
Li     -3.95575431     1.86577481    -6.09387572     0.36433580     0.88959359     0.79380559
Li     -7.84558279     2.39302627    -9.95741650     0.40939677    -0.11829712    -0.41713003
Li     -7.81699734     2.19263573    -5.94431482    -0.39226581     0.03837766    -0.01111839
Li     -3.79919783     6.76107459    -1.73267214    -0.63238217    -0.35389962    -0.57724712
Li     -3.87300691     6.28433949    -5.96871849    -0.38282563    -0.07246266     0.22599805
Li     -7.89130902     6.26934628    -9.82691366    -0.10041124     0.80709539    -0.63220945
Li     -7.82782140     6.62210846    -5.95190742     0.07268863    -0.33531648     0.44192877
Ti     -1.89120592     2.26665477    -4.08494288    -2.39293499    -1.67731465    -0.10239021
Ti     -5.90980801     6.66846912    -7.92588571     0.32449682    -0.81222672    -0.68536644
Ti     -7.78797416     4.38743200    -7.76602698    -1.09146192    -0.21751596     1.17661372
Ti     -7.88033622     4.40691600    -3.78228361     0.31208162     0.33169711     1.22902755
Ti     -3.82418929     4.23765650    -7.76185050     0.24817138     0.30521552     1.74335465
Ti     -3.95278889     4.42087027    -3.55967400    -0.27910301    -0.99974744    -1.63560204
Ti     -2.21330596     0.05406237    -2.11067302     0.57458129    -1.89978129    -1.17617731
Ni     -5.81534284     2.41155268    -7.98220676    -0.77855432    -1.04725829    -0.25725647
Ni     -5.92654345     2.54318336    -4.16000564     1.07604950    -1.21204690     0.45326711
Ni     -9.87308228     6.48866293    -7.86499855     0.68095794     0.34849100    -0.52228135
Ni     -9.81760890     6.48516594    -4.01079363     0.75283929     0.11318760    -0.10760964
Ni     -1.91124891     1.89120416    -7.98785591     0.58730504     0.78596211     0.27716200
Ni     -5.81977267     6.64134277    -3.89085930    -0.83624777    -0.88964558    -0.26761192
Ni     -5.79461736     8.66749018    -6.03850619    -0.49291032     0.22909836     0.72825043
Mo     -5.99458578     0.04905792   -10.24062780    -0.81219554    -0.42651030    -2.25953063
Mo     -9.78065917     8.71112307    -6.42248548    -0.84963557    -1.10030176     1.69258548
O      -1.95198105     1.87677834    -1.97759108     0.23012254     1.17180965     0.38694095
O      -1.84736416     1.76445821    -6.02027118    -0.55282388     0.62769042    -0.64224787
O      -5.97978917     6.80971612    -1.97682242     0.81567857     0.05849724    -0.35055964
O      -5.89037936     6.75202170    -6.04525247     0.49105640     0.97478066     1.29808170
O      -5.89275926     1.89864353   -10.17858788     0.32808267     1.65868358     0.53796604
O      -5.94699829     2.02377480    -6.01334684     0.71977689    -0.62825831    -0.07623121
O      -9.90062450     6.94035200    -9.71647247     0.55136046    -0.31153452     0.32605792
O      -9.73513247     6.77116719    -6.04006038    -0.31272500     0.23136608     0.51880680
O      -4.00900759     2.42876594    -4.08552818     0.47479571     1.18446436     0.61570523
O      -3.75398208     2.26152213    -7.90230825    -0.65038770     0.75172288    -0.62098056
O      -7.75867572     2.43435347    -4.05835841    -0.95799219     0.86601413     0.44604731
O      -7.91858698     2.37956448    -7.95887937     1.57357358     0.26388454    -0.23021705
O      -3.88598681     6.33659422    -3.95639723    -0.04003106    -0.14714689     0.53380270
O      -4.03698725     6.23490997    -7.95809518     0.63480379     0.62215322     0.08505911
O      -7.73744842     6.38820790    -3.94685449    -0.92941892    -0.32998742    -0.00945576
O      -7.86086887     6.29487202    -7.96465549    -0.35410289     0.79243998     0.33752912
O      -3.90637922     4.29654612    -1.82712003     0.00201772    -0.30400417    -0.45230651
O      -3.93877647     4.35505464    -6.00336850    -0.06914737    -0.02290159    -0.60650686
O      -7.89196152     4.46907770    -9.87405113    -0.35808371    -1.15948112    -2.09017483
O      -7.94938548     4.47484444    -5.98954850     0.23167490    -0.29661089     0.03221038
O      -3.98684657     0.04697140    -2.06651244    -1.17113861     0.21348498     0.14560862
O      -4.03957204     0.02432470    -6.08349519    -0.63949197    -0.52246514    -0.06234711
O     -11.58724933     8.62426748    -5.96727529     0.75582067     0.73311433    -0.53147990
O      -7.77738513     0.15825848   -10.26763696    -0.33894251    -0.73199035     0.79057175
O      -1.96020797     4.11038484    -3.97924375    -0.95361242     0.83697969    -0.01755022
O      -9.75658984     4.63480415   -11.90207293    -0.60109892     0.53488337    -0.44481893
O      -5.90552862     4.56693191    -3.88043479     0.80189542    -0.26356917    -0.43320059
O      -5.95790159     4.26952622    -8.03188379     2.09715728     0.01462348     0.13258244
O      -1.92937792     0.23516282    -4.04257917     0.05305372    -0.65149426     0.82399950
O      -6.00342621     8.45951380    -8.03913515     0.51189585     1.24291697    -0.09897811
O      -9.82953614     8.42555644    -4.04447516     0.67173500    -0.66572527     0.46730857
O      -5.91024727     0.50241289    -8.14809542     0.11435354     1.03921841    -0.53417734
