# total energy = -630.59960312 eV

CRYSTAL
PRIMVEC
        0.00279571     0.02951795    -7.98606283
       -7.83802570     0.01298533    -3.99532603
       -3.92160916     8.71933433     0.00634407
PRIMCOORD
56 1
Li     -3.90597653     2.32790096    -1.86839048    -0.21179200    -0.12889019     0.06092477
Li     -3.99028587     2.35736267    -5.99179581     0.17359070     0.09129342    -0.08310730
Li     -8.00954871     2.24205573    -9.91533602     0.66678999    -0.10537316    -0.62879828
Li     -7.89688828     2.21997612    -6.03099344    -0.08110273    -0.14566991     0.51293735
Li     -3.83411973     6.58592317    -1.93194472     0.46926160     0.05925518    -0.24866332
Li     -4.00939221     6.69153108    -5.93944679     0.37794955    -0.34192468     0.31464037
Li     -7.99681522     6.40071470    -9.94364330    -0.08321252     0.00330864    -0.14042351
Li     -7.72037644     6.41085847    -5.75026846    -0.55697227     0.23512542    -0.55055986
Ti     -1.99741377     2.18113288    -4.10708017    -0.68521472    -0.81452570     0.43961921
Ti     -5.88144689     6.57257543    -8.19685697    -0.28416973    -2.18122513     2.07514046
Ti     -7.85100478     4.30860375    -7.71642258    -0.03924748     1.19442190    -0.39712179
Ti     -7.77851532     4.21059373    -3.75950793    -0.11531546     0.47922174     0.70115404
Ti     -3.75359762     4.43502123    -7.69114983    -0.60790538    -0.31076504     0.60686416
Ti     -3.96620606     4.33807977    -3.63632335     0.01627420    -0.07075571    -1.62123788
Ti     -2.18211465     0.02089423    -1.97248789     0.19225649     0.91015775    -1.42895991
Ni     -5.91506594     2.44835075    -8.05086488     1.19082839    -0.80049350    -0.22469517
Ni     -5.83005192     2.17492435    -4.08024469    -1.32562123    -0.03661987     1.88060009
Ni     -9.80382949     6.58424533    -7.84568867     0.22508968    -0.23163986    -0.69862392
Ni     -9.75159801     6.49789435    -3.94458562     0.31357871    -0.54941880    -1.01806737
Ni     -1.92076654     2.18664703    -7.99793559    -0.89537078     0.00276533     0.03385069
Ni     -5.85366396     6.50602042    -3.96121035     0.41153089    -0.06083270    -0.00845044
Ni     -5.96492578     8.71475349    -5.98527901    -0.08430257    -0.95876027     1.18901778
Mo     -6.04348582     0.15483128   -10.31813241    -0.65510216    -0.70943392     0.39339138
Mo     -5.84419131     0.17659899    -6.35541359     0.13488101    -2.24818681     0.33243804
O      -2.08267795     1.95135595    -1.98811694     1.23142441    -0.60898351     0.33547736
O      -2.06559539     1.87017626    -6.03082316     0.36744256    -0.54469773    -0.19765157
O      -5.79802977     6.70568273    -1.99344986    -0.31764367     0.16757793    -1.75005783
O      -5.85644211     6.84314043    -5.77445441    -0.27778438     0.54848674    -0.70693804
O      -5.82951008     1.98604004   -10.07329114     0.10164234     0.66343872    -0.29990356
O      -5.94469351     2.04923807    -5.86219882     0.57695505    -0.17091811    -1.15955275
O      -9.90593262     7.03793738    -9.82816640     0.78673152    -0.79861634     0.52296389
O      -9.67900108     6.81131684    -6.01246217    -0.73416467     0.32892096     0.05944619
O      -4.00457281     2.39012116    -4.00257551     1.36149749    -0.83719442     0.00362367
O      -3.85993474     2.55039574    -7.91927987    -0.58841150    -1.64824455    -0.45015335
O      -7.83182331     2.23852210    -4.00065674     0.13716037     0.74444121    -0.07462278
O      -7.79709384     2.35155684    -8.01406156    -1.13156702     0.40694435     0.32580061
O      -3.78525950     6.16680915    -3.96684000    -0.53024860     2.09004060     0.39290386
O      -3.94658844     6.35295819    -7.98812103    -0.12015682     0.40308782     0.30568559
O      -7.74470243     6.25922188    -3.89126218    -0.77847962    -0.33605934     0.24909689
O      -7.88637808     6.32329018    -8.01702021     0.53131266    -0.58486821     0.27969882
O      -3.87752838     4.22469562    -1.91063198    -0.09764655     0.49150752     0.47293795
O      -3.81132048     4.25800333    -5.94093679    -0.54851710     0.71251005    -0.55841472
O      -7.88159748     4.13893934    -9.95315587    -0.08094395     0.75917036    -1.01285034
O      -8.05694127     4.25873294    -5.96100964     0.58657661     0.00455262    -0.54230203
O      -7.86862473     8.69014911    -2.11795894    -0.52926101    -0.04497806     0.54708753
O      -7.98705774     8.65187980    -5.94801320     0.33537577     0.78838601    -0.49638707
O     -11.56181695     8.69114359    -6.20159344    -0.24925581    -0.15118637     0.95304144
O      -7.81093574     0.13985138   -10.04189561     0.26402760     0.10369108    -0.42879119
O      -2.03652367     4.07009581    -4.15491758     1.12715069    -0.55307732     0.85474527
O      -9.75347144     4.53421678    -4.00419296     1.00945505     0.98618034     0.20840422
O      -5.85570987     4.43168751    -4.10418128    -0.60814133     0.05736266     0.42895787
O      -5.91522575     4.42543103    -8.08510429    -0.13269440     0.05985342     0.86052744
O      -1.85707001     0.16428452    -3.92827557    -0.40737737     0.60661937     0.02417132
O      -5.82758409     8.34803648    -7.98693553    -0.45060141     1.54501681    -0.21137298
O      -9.76727645     8.44949394    -4.06911747    -0.21840620    -0.31845124     0.13690546
O      -5.88379723     0.44648202    -8.13394709     0.69804367     1.34753961    -0.70217442
