# total energy = -630.47060272 eV

CRYSTAL
PRIMVEC
        0.00279571     0.02951795    -7.98606283
       -7.83802570     0.01298533    -3.99532603
       -3.92160916     8.71933433     0.00634407
PRIMCOORD
56 1
Li     -3.98649746     2.48745903    -1.98574185     0.31122691    -0.88863120     0.25779267
Li     -4.09268956     2.00724015    -6.12055067     0.82077365    -0.05237569     0.28908494
Li     -7.79058771     2.19897818   -10.03204312     0.10476907     0.22673633     0.08851255
Li     -8.04651727     2.30493241    -5.87333515     0.81505917     0.09236074    -0.49296945
Li     -3.97710025     6.29409974    -1.92126873     0.27435270     0.14138936     0.13158310
Li     -3.78971346     6.53263654    -5.74096635    -0.54238533    -0.38092299    -0.41697164
Li     -7.87432805     6.39422048    -9.97593659     0.13993750     0.10143872     0.70586388
Li     -7.87310700     6.55583846    -5.84410351     0.29451660    -0.03187821    -0.12613491
Ti     -2.05142688     2.45566824    -4.30672671     0.60217437    -0.94084531     0.92992790
Ti     -5.76634047     6.83821189    -7.91457988    -0.52394876    -1.93996588     0.01144981
Ti     -7.69753968     4.33356830    -7.76543727     0.62839882     0.31526203     0.99989616
Ti     -7.96932561     4.42354467    -3.82584354     1.01719033    -1.15019868     1.59913840
Ti     -3.83031153     4.27278682    -7.73096961    -0.08037108     0.91412509     1.45400428
Ti     -4.10177425     4.36913183    -3.75197254    -0.49184488     1.43994891    -1.21439346
Ti     -2.07496787     0.09124678    -2.29575700    -0.65337244    -1.01353602    -0.44745151
Ni     -5.83452787     2.27613679    -8.02929495    -0.83867817     1.16393444    -0.36514709
Ni     -5.88694055     2.24572640    -4.13144675    -0.98250477    -1.64629372     1.29706594
Ni     -9.77607589     6.51145655    -7.74265226    -0.48606386     0.00648086    -0.51527811
Ni     -9.77924694     6.68881031    -3.80514247     0.00768038    -0.19068447    -0.56739014
Ni     -1.90120624     2.03637696    -8.09133150    -1.14045877     1.10413877     0.30553701
Ni     -5.87802928     6.66424020    -3.93978013    -0.04728221    -0.34943386    -0.12156707
Ni     -5.87864170     8.71641624    -5.98262959    -0.36023657    -1.31282145     0.37609726
Mo     -9.84497300     8.71748696   -10.19723716     0.75017601    -0.08718238    -0.69354976
Mo     -9.86859576     8.71147490    -6.31836771     1.23100877    -1.56714749     0.38759379
O      -2.07454048     1.96190646    -2.12800827     0.20394106    -0.10765703     0.62355665
O      -2.01365139     1.81297417    -6.17773941     0.24178656     0.36624570     1.04703996
O      -5.94107392     6.80359606    -1.92772240     0.91059608     0.15400330     0.17172875
O      -5.73543546     6.75037386    -5.90233176    -1.04312516     1.34435179     0.17124230
O      -5.78892777     1.96980286   -10.06815741    -0.32339283     0.23913287    -0.21748014
O      -5.92463025     2.01096278    -5.98130728    -0.13523586    -0.49141812    -1.07020698
O      -9.79945833     6.85892656    -9.69856322     0.98968830    -0.14602911    -0.18271839
O      -9.80506780     6.71706552    -5.88050304    -0.74205939     1.09400289     0.36655017
O      -3.96519971     2.41319834    -4.20671257     0.51562688     0.18560853     0.79416093
O      -3.97459650     2.35508384    -7.96730567     0.43075223     0.04834809    -0.46995003
O      -7.86427824     2.26755572    -3.91365593     0.88013408     0.58541187    -0.82045817
O      -7.90884206     2.39992801    -8.00848590     0.12355762    -0.05335387    -0.85644937
O      -3.98393125     6.41211532    -3.87826163     0.72102689    -1.30674319     0.37179649
O      -3.87770766     6.35226536    -7.81851851    -0.03531509     0.31265757    -0.95277824
O      -7.79909932     6.32469773    -3.90792203    -0.48087301     0.27413276    -0.41610647
O      -7.79040952     6.21434622    -7.83184273     0.16341822     1.48279727    -0.34509603
O      -3.96740648     4.32411379    -2.01208890     0.17310685     0.53344174     0.58141512
O      -3.77901905     4.37391081    -5.95646065     0.24120487     0.11178521    -0.46036005
O      -8.04722035     4.39896924    -9.96166742     0.09199016    -0.29492770    -1.05118225
O      -7.85240900     4.24500040    -5.98665426    -0.05294724     0.21749350    -0.08639150
O      -7.82535863     8.61268667    -2.18529053    -1.24059356     0.20539626     0.44898986
O      -7.97770337     8.59774614    -5.95427953    -1.29296461     0.60354876    -0.61572581
O      -7.76560472     0.09637491    -6.29009434     0.42841668    -0.62906376     0.92534083
O     -11.59535758     8.66445059    -9.93934544    -0.21624828     0.50997857    -0.25364094
O      -2.02384909     4.22550442    -3.82496574     0.16216364    -0.23546898    -1.01016459
O      -1.93040722     3.91220137    -0.13170989    -0.67039430    -0.17537091    -0.12274519
O      -5.97542972     4.09491983    -3.97618640    -0.01586655     0.47102747    -0.26643397
O      -5.74833245     4.36615872    -7.97898265    -1.15272981    -0.68149117    -0.14458992
O      -1.95861827     0.19470619    -4.08934769     0.10463168     0.66690001    -0.83593099
O      -5.90164844     8.62022997    -7.91346379     0.44824474     1.21067936    -0.15569483
O      -5.90746101     0.24554776    -4.09256054    -0.24045333     0.52315101     0.49456367
O      -5.72534501     0.48576352    -8.13894926    -0.16438191    -0.41504571     0.44933747
