# total energy = -630.57467939 eV

CRYSTAL
PRIMVEC
        0.00279571     0.02951795    -7.98606283
       -7.83802570     0.01298533    -3.99532603
       -3.92160916     8.71933433     0.00634407
PRIMCOORD
56 1
Li     -3.89155836     2.45360644    -1.87614923    -0.02407933    -0.49664162    -0.31026023
Li     -4.12847730     2.33620015    -6.02156518     0.70446742     0.00483227    -0.01234218
Li     -7.70885916     2.14265696    -9.75833681    -0.69189292    -0.03693997    -1.19718173
Li     -7.88652636     2.04218863    -5.83589956     0.14804737     0.11095489    -0.21152634
Li     -3.91925867     6.49768410    -1.97882284     0.23476218    -0.03764199    -0.07610588
Li     -3.97406814     6.61029574    -5.83848462    -0.06868045     0.24885282    -0.43091973
Li     -7.80553803     6.62668195    -9.81269735    -0.61116796    -0.44029582    -0.72251443
Li     -7.82501881     6.50519496    -5.87904829    -0.41533739    -0.19624694     0.29396955
Ti     -1.97725967     2.33474575    -4.14967822     0.02797495     0.42242013     0.50322531
Ti     -5.82733115     6.74200502    -7.95498796    -0.23385215     1.70622641     0.12257321
Ti     -7.69536451     4.41795056    -7.64933884    -0.80574292     0.26217349    -1.23792486
Ti     -7.92585651     4.28660028    -3.72194767     0.49930048     0.71628408     0.29234073
Ti     -3.97383404     4.34720366    -7.79570586     1.64599609    -0.43178798     0.67302425
Ti     -4.02869635     4.38971427    -3.85429354    -0.94188219     0.91595613     1.73701957
Ti     -1.86228627     0.00973161    -2.23234534     1.49557089     0.35761934     1.65756439
Ni     -5.93250275     2.13816317    -7.95014759     1.30936366    -0.67544279    -0.44136360
Ni     -5.84435306     2.17217997    -4.01387601    -0.19601025     1.90308252     0.16889116
Ni     -9.87722485     6.36233954    -8.06094995     0.62722338     0.83696689     0.15078561
Ni     -9.83799436     6.65921119    -3.85163250     0.90225372    -0.56227533    -1.58418424
Ni     -1.98196750     2.03124600    -7.98051477     0.69096055     0.76651720    -0.62235291
Ni     -5.91813752     6.64397857    -3.92673616    -1.10782160    -0.29144329    -0.32976272
Ni     -2.03231228     0.09891948    -5.89974207     1.05197272    -1.27519177    -1.31416008
Mo     -9.83988652     8.73532513   -10.38506470    -1.67525564    -0.42077894     1.18837301
Mo     -9.63379864     8.73531084    -6.29335832    -2.03000275    -0.40476793    -0.93371591
O      -1.89370425     1.95773109    -1.95760123    -1.06700043    -0.43875648    -0.16456239
O      -1.97563108     1.85842256    -6.08657611     0.14445227     1.82727719     1.35615070
O      -5.94187612     6.77390912    -1.99393029     0.43351822     0.24508240     0.15606957
O      -6.02741884     7.00130102    -5.90631849     0.99281976    -0.55360973     0.46753729
O      -5.94579614     1.90995025    -9.89393245     0.89372849     0.49733496     0.74567887
O      -6.00507282     1.96390006    -6.08063502     0.88228951    -0.44123079     0.12549259
O      -9.82393067     6.78887055   -10.05619037    -0.78634050     0.13486372     0.88646265
O      -9.79015314     6.90994907    -5.72436668    -0.09604385     0.62437677    -0.34107644
O      -3.88080663     2.40097228    -4.02839342     0.09921034    -0.23541529    -0.04051052
O      -4.00180418     2.25952251    -7.99062383    -0.80035667     1.39582032     0.33038285
O      -7.68152318     2.36305939    -3.95012705    -0.88999314     0.04257476     0.05168945
O      -7.76121815     2.42594175    -7.91752071    -1.64735619     0.91681648    -0.31731477
O      -4.02541408     6.35074409    -4.00021026     0.30810977    -0.69496157     0.10490389
O      -3.86453631     6.45044328    -7.95510001    -0.75512411    -1.06254436     0.33626901
O      -7.93857748     6.40127281    -3.87598032     0.62376768    -0.61220382    -0.46772461
O      -7.83266420     6.47587028    -7.93181968    -0.18335962    -1.22971870     0.34312622
O      -3.83225458     4.33254344    -2.02217069    -0.34586259     0.33324319     0.01231341
O      -3.83292840     4.26723215    -5.99244977    -0.08172093     0.25370604    -1.20010799
O      -7.89462836     4.51219554    -9.97284699     0.12932691    -0.37103157     1.00838676
O      -7.93688221     4.44789882    -5.95479293     0.09466641     0.42621640     0.63624442
O      -8.09524255     8.74938686   -10.07770845     1.11408140    -0.04341813     0.01094070
O      -3.98660581     0.13335013    -6.02370682     0.13308263     0.09305062    -0.35516790
O      -0.02229645     0.01663009    -2.19877397     0.13389084    -0.30264104     0.20639874
O      -7.85052914     0.12078833   -10.12785780     1.28966546    -0.75511514     0.64373191
O      -2.02599831     4.39177964    -4.01909052     1.46911997    -0.85922817    -0.28975488
O      -1.94488581     3.97580734    -8.01763117    -0.88618953    -0.60564244     0.15356095
O      -5.86553450     4.18466161    -3.96398621    -0.81594797    -0.73324917    -0.46520081
O      -5.83041623     4.79617357    -7.75591174    -0.19831386    -0.31426635    -0.63715268
O      -2.02340905     0.40700778    -4.00294063    -0.30341014     0.26200167    -1.03148129
O      -5.73918641     8.65919949    -8.06457311    -0.99041973     0.02901680    -0.06131667
O      -5.96347568     0.36152153    -4.20352868     0.20544776    -0.16093818    -0.32147772
O      -9.88687021     8.23721844    -8.06697377     0.37839945    -0.16455608     0.75572215
