# total energy = -630.71652464 eV

CRYSTAL
PRIMVEC
        0.00279571     0.02951795    -7.98606283
       -7.83802570     0.01298533    -3.99532603
       -3.92160916     8.71933433     0.00634407
PRIMCOORD
56 1
Li     -4.05582477     2.33156232    -1.93080759     0.33970968     0.21904574     0.24451717
Li     -3.87526790     2.36467367    -6.03701389    -0.38084338    -0.21034684    -0.01335872
Li     -7.87428744     1.90663801    -9.77348986    -0.07758778     0.53814542    -0.54754325
Li     -7.88951343     2.45738269    -6.00693754     0.05749256    -0.34354822     0.53421486
Li     -3.86719530     6.47292939    -1.91788392    -0.21948232    -0.08137485    -0.36862210
Li     -3.97540473     6.78482673    -5.90698588     0.10572876    -0.31200271     0.29516569
Li     -7.87915147     6.37440202   -10.00986644     0.17114310     0.33943964     0.12140699
Li     -7.97942108     6.29492088    -5.81658391     0.15703146    -0.13210107    -0.17254191
Ti     -2.07166980     2.30538800    -3.94824746     0.43429663    -0.94203802    -0.44954349
Ti     -5.89377970     6.78205547    -7.90714606    -0.54274520    -0.90681701     0.12412949
Ti     -7.70416535     4.42220933    -7.85992297     0.71350535    -1.02575160     0.77519185
Ti     -7.85587420     4.21105987    -3.65261136     0.81346373     0.05432187    -2.56171390
Ti     -3.85073492     4.45555722    -7.71500159     0.05912243    -0.16970146    -4.63910165
Ti     -3.98811485     4.49998280    -3.83627789    -1.36934089    -0.49390454     0.19685150
Ti     -5.67865159     8.71724698    -2.08595327     0.38031469    -0.37815098    -0.83731315
Ni     -5.98084820     2.17667978    -7.86241986     0.65745026    -0.08196451    -0.75728716
Ni     -5.79414567     2.17109757    -4.10366247    -1.51861038     0.37419677     0.42275047
Ni     -9.65364337     6.36308765    -8.08584223    -2.97955458    -0.16726772    -0.08998086
Ni     -9.84767663     6.61052492    -3.88540365    -0.03199755    -0.13895249    -1.40176722
Ni     -1.98319494     2.12888974    -7.96932778    -0.34064602    -0.34206055    -0.17641814
Ni     -6.00594977     6.72044615    -3.98663019    -0.09398467    -0.39081212    -0.46523229
Ni     -1.97025008     0.07121515    -5.97748471    -1.07738200    -1.35904595     0.24776396
Mo     -5.91791139     0.09631511   -10.30607166     0.78601978    -0.38389362     0.86383197
Mo     -9.67670985     8.73753560    -6.31908652     0.13163847    -0.14699442     0.08814151
O      -2.08225129     1.91122803    -2.04113999     0.13243975     0.46359750     0.44703614
O      -2.05294647     1.81414318    -5.95738128     1.19924636     1.77945688    -0.19727807
O      -5.86363581     6.78685979    -2.11082612    -0.69881811     0.28978933     0.81622715
O      -6.08632174     6.95770419    -5.98453591     0.84619067    -0.29295785     0.57026334
O      -5.87962340     1.96342553    -9.89297806    -0.92984688    -0.28194453     0.73016031
O      -5.93178847     1.94996895    -5.99535005    -0.12467665    -0.35167859    -0.64170407
O      -9.76585635     6.70415247   -10.09405291    -1.11051439     0.58957959     0.99585240
O      -9.83312495     6.85994991    -5.74443479     0.39391700     0.38648139    -0.68487165
O      -3.93141732     2.34001521    -4.08720846     0.15388168     0.60091980     0.45457913
O      -4.12982246     2.47534035    -7.95078156     0.47078779     0.21197960     0.09798734
O      -7.75321471     2.27611696    -4.02008399    -0.36728316     0.46010133     0.28408584
O      -7.88109786     2.33558755    -7.93358897    -0.07266065     0.77877253    -0.13099278
O      -4.02442373     6.33808637    -3.97157287     0.61784815     0.79315093    -0.57201059
O      -4.01778106     6.51141915    -7.92608258     1.26210702    -0.14434926     0.16037255
O      -7.96593196     6.21797863    -3.91658080     0.69402096    -0.13350941    -0.24217591
O      -7.89335146     6.36685529    -7.96227935     1.60482047    -0.44924307    -0.34399383
O      -3.97607196     4.37221613    -2.09287676     0.09572988    -0.08821812     0.64985817
O      -3.93422123     4.45232246    -6.07263380     0.00240662    -0.29722652     4.59964252
O      -7.93078566     4.35174180    -9.93415631     0.31318825     0.05877492     2.07073289
O      -7.90807192     4.36357837    -6.10672836    -0.21714977     0.10417357    -0.16261789
O      -8.10226621     8.70993206   -10.07402580     1.00394522     0.07262607     0.18278801
O      -4.00166777     0.19624399    -6.07741643    -0.46080754    -0.54343083    -0.10388153
O     -11.68629457     8.73260694    -6.01886524     0.20706950     0.16769488    -0.48221246
O     -11.70837256     8.75423224    -9.91644362     0.21687421    -0.44723453    -0.19944183
O      -2.03024090     4.21537027    -4.07403105     0.61559998     0.78677261    -0.09737637
O      -1.93317845     4.02659742    -7.96407160    -0.30945905    -0.23337926    -0.20139173
O      -5.90206364     4.11763355    -4.20418256    -0.15803376    -0.32115355     0.74162290
O      -5.81328566     4.79083494    -7.94690183    -1.12677588    -0.22269394    -0.43939523
O      -2.07091733     0.17543247    -3.94779312     0.16577405     0.51644707    -0.04850014
O      -6.04200226     8.64631115    -8.11781383     0.48592505     0.71848305     0.36939052
O      -5.89698253     0.12084187    -4.11372732    -0.23513401     0.61200483    -0.57079501
O      -9.60485303     8.17067250    -8.08037753    -0.98581924     0.35364109     0.66233916
