# total energy = -630.64831090 eV

CRYSTAL
PRIMVEC
        0.00285542     0.02004370    -7.95977623
       -7.82940539     0.00763210    -3.98158109
       -3.91729101     8.74642787     0.01461334
PRIMCOORD
56 1
Li     -3.69092102     2.38905214    -1.92085722    -1.76350839     0.12812394    -0.14775187
Li     -3.83746821     2.04019902    -5.99669102    -0.51301217     0.15385227     0.25214322
Li     -7.84050661     2.24483019    -9.83924521    -0.05804658     0.24693137    -0.50886127
Li     -7.87912519     2.17527937    -5.97619317     0.42470895     0.08078766     0.35487769
Li     -3.83271341     6.42540804    -1.91540865    -0.38284551    -0.27535981    -0.03565018
Li     -3.60659185     6.51130947    -5.82566560    -0.90023532    -0.28985721    -0.09969446
Li     -7.83667853     6.57405957    -9.93298359    -0.28744583    -0.34244631     0.03444896
Li     -7.79498923     6.45372733    -5.94222870    -0.10961752    -0.13852090     0.60504485
Ti     -2.01108595     2.21101085    -3.97956340    -0.44289725    -0.08025727    -1.34706960
Ti     -5.87370803     6.80792668    -7.99544410     0.35479124    -0.04994256     1.49427054
Ti     -7.82218882     4.31631405    -7.74183459     0.48310764     0.45277494     1.09828218
Ti     -7.95322195     4.31423419    -3.67605913     0.08537881     1.41820300    -1.62223037
Ti     -3.89364686     4.30778879    -7.65216259     0.33495760     0.43891220     0.46355620
Ti     -4.04855521     4.40037901    -3.82294783     0.35633623    -0.91457832     1.32062500
Ti     -6.00946862     8.70756630    -2.22071301    -0.76749164     0.27135850    -0.06254781
Ni     -5.79208229     2.38038778    -7.89794557    -0.45545660     0.38050038    -1.25281130
Ni     -5.85878357     2.20380420    -4.10169013    -0.18559521     0.57573561     0.87899767
Ni     -9.78949703     6.60767712    -7.79624389     0.77344532    -0.17275183    -0.55082926
Ni     -9.79634554     6.55474258    -3.97540198    -0.16666088    -0.01904173    -0.09666837
Ni     -2.02608322     2.05754436    -8.01805600     1.34998480     0.10662600     0.87855207
Ni     -5.85817391     6.38932906    -4.00692150    -0.64469329     0.77929217    -0.13941579
Ni     -5.84312971     8.67632781    -5.92611754    -0.58681316     1.47508818    -0.28120233
Mo     -5.96993882     0.15683388   -10.16829012     2.10227979     1.00559879    -0.21350784
Mo     -9.72645175     8.74233082    -6.37382558    -2.15128847     0.17558083     0.14492397
O      -1.98807831     1.93513876    -2.05342762     1.10823575    -0.60810665     0.83581786
O      -2.04033674     1.80623748    -5.99445577     1.21447371    -0.30565815    -0.45822728
O      -5.99117959     6.76084898    -1.93044091     0.89640370     0.26671777    -1.02985362
O      -5.86076383     6.87001997    -5.94312537     0.32018788    -0.53105118     0.63027468
O      -5.78283854     2.18580519   -10.06519883    -0.97801594    -2.18159720    -0.05828712
O      -5.76159051     2.04805178    -6.00660541    -0.59664337    -0.81339041     1.02254562
O      -9.59668074     7.00303068    -9.65968254    -1.20121118     0.72374239    -0.13737143
O      -9.82882620     6.87612101    -5.97374829     0.24507596    -0.94257334     0.50985007
O      -3.97777295     2.29992526    -3.98764059     0.94230794     0.92040363    -0.23733017
O      -3.87014716     2.34653029    -7.95065000     0.26868121     1.11638842     0.18634694
O      -7.84125599     2.49565594    -3.99532188    -0.14964945    -2.22607431    -0.33126089
O      -7.83895290     2.36800911    -7.91983695     0.57894353    -0.12099398    -0.30752763
O      -3.82259257     6.33129245    -3.84465528    -0.11755343     0.27071929    -0.83256460
O      -3.97087115     6.36678114    -7.94823925    -0.06042976    -0.14015426     0.36006486
O      -7.94513764     6.32317350    -3.92635960     1.35532955    -0.03457414    -0.28878126
O      -7.79418823     6.35353050    -7.85529174    -0.16533138    -0.17372945    -0.38556439
O      -3.96820121     4.36179664    -2.02002750     0.69206265    -0.08182121    -0.52559459
O      -3.75579301     4.36201886    -5.86658168     0.12542458     0.25405415    -0.74951761
O      -8.01670263     4.31910600    -9.91836156     0.61706546     0.26729699     1.72139295
O      -7.92239080     4.35664553    -5.98823167    -0.10150990     0.20976797    -0.44366675
O      -3.92330720     0.16147052    -2.17633722     0.25120247    -0.63496309     0.74377848
O      -8.04465600     8.69074534    -5.89703011     1.54508076     0.18739456    -0.08588418
O      -7.65644268     0.08954611    -6.10539138    -0.30323385    -0.18834964     0.26966719
O      -7.68380721     0.03229819    -9.84858434    -0.68251777     0.07273882    -0.24392567
O      -1.87539525     4.02309898    -4.01638454    -1.62075352     1.06407572     0.12507310
O      -9.84368915     4.70413017    -3.96398116     0.13161485    -0.13199823    -0.46348337
O      -5.90216891     4.41242752    -4.05484283    -0.98331784     0.13364250    -0.05117047
O      -5.78811548     4.24379503    -7.79575057    -0.88443857     0.44955110    -0.62672557
O      -2.03609365     0.16978298    -4.07466727     0.75291202    -0.52423201     0.54025740
O      -5.88863486     8.62355200    -7.95292617     0.17927000    -0.56248846    -0.05606425
O      -9.83450851     8.58242374    -3.96214241    -0.24702080    -0.26507315    -0.28722914
O      -5.77063070     0.61283753    -8.11070779     0.25369118    -0.76837095    -0.48857987
