# total energy = -630.77327870 eV

CRYSTAL
PRIMVEC
        0.00285542     0.02004370    -7.95977623
       -7.82940539     0.00763210    -3.98158109
       -3.91729101     8.74642787     0.01461334
PRIMCOORD
56 1
Li     -3.96043373     2.27104928    -2.01310605     0.14920999    -0.33472936     0.58765539
Li     -3.96933465     2.37988632    -5.96285035     0.01885657    -0.38624574     0.36730273
Li     -7.80776262     2.20195949   -10.11493618     0.02525667    -0.00657321     0.67290178
Li     -7.77166536     2.17739835    -5.96249690    -0.90272507    -0.01156741     0.20637808
Li     -4.05221705     6.67465072    -1.94615555     0.92600726     0.05025155    -0.29456270
Li     -3.88844473     6.57237161    -5.83971856    -0.12482226    -0.26373086     0.08508836
Li     -7.94124952     6.67513272    -9.97633346     0.32211516    -0.41510916     0.32946649
Li     -7.79914932     6.47204487    -5.93982480    -0.01549513     0.27520151     0.35652968
Ti     -1.86388232     2.18709710    -4.20522007    -1.72152654    -0.70168874     0.17637668
Ti     -5.82571282     6.48142645    -8.08034676    -0.63867336     0.54242686     0.65265170
Ti     -7.91629420     4.36630133    -7.72271780     0.75492165     1.38001469     0.66387290
Ti     -7.86158231     4.41229557    -3.74386220     0.06717126     0.57458541    -0.77212471
Ti     -3.73002795     4.33881729    -7.61493210     0.46958890     1.00595188    -2.27901756
Ti     -4.00459081     4.28681261    -3.63068780    -0.22918506     0.16864399    -0.64176807
Ti     -2.01965270     0.04092575    -2.22946852     0.84238804     0.51669336    -0.31768808
Ni     -5.80141306     2.43447712    -7.92961947    -1.29561110     1.65041459    -0.82691913
Ni     -5.97245363     2.18696511    -4.05892527     0.44401185     0.26562937     1.53770393
Ni     -9.80321770     6.60169683    -7.86126218    -0.22980971     0.17152049     0.77163586
Ni     -9.81993936     6.73574374    -3.89268425     0.39492307    -1.92812682    -0.68734084
Ni     -1.92024772     1.86310288    -7.96785402    -0.41903778     0.94221857    -0.22147839
Ni     -5.80842974     6.60486371    -3.88281521    -0.97377125    -0.60576088    -1.15033518
Ni     -5.81723396     8.58177467    -5.99283201    -0.31235748     1.72494638     0.49436885
Mo     -5.90700037     0.04339319   -10.19519933    -0.11506266     0.04636574     0.67177414
Mo     -5.84357118     0.07485153    -6.32565775     0.68316238    -1.29499593    -0.60623375
O      -2.00932409     1.91713061    -1.95687528     0.13852328    -0.47155540     0.38530480
O      -1.94163543     1.80303011    -6.05683278     0.04904380    -0.22318815    -0.96434105
O      -5.98136604     6.79184119    -1.97914703     0.50048976    -0.36961611    -0.59917838
O      -5.79865016     6.83216845    -5.75137545    -0.18510024    -0.79194235    -0.40086229
O      -5.89970754     1.95433365   -10.01140336     0.03953121     0.86046405    -1.20538743
O      -5.92436839     1.97318519    -5.84850036     0.06057227     0.33623314    -0.57087240
O      -9.78407532     6.92199716    -9.67281646    -0.17574302     0.03128567    -0.34123465
O      -9.91736104     6.98458276    -5.93228886     0.27499637    -0.95348776    -0.82913255
O      -3.83662858     2.30494895    -3.98040429    -0.95118044     0.90868477    -0.15615638
O      -3.94160250     2.46219804    -7.90153166     0.91037793    -0.44921448     0.15598717
O      -7.94028395     2.40798264    -3.99218663     0.38955304    -0.00581309    -0.35312124
O      -7.85063789     2.42008168    -8.02377992     1.37318116     0.30121511     0.34714250
O      -3.89243050     6.23091879    -3.93220322     0.17799341     0.26653496     0.81659815
O      -3.92595711     6.39682296    -7.95449027    -0.22396295    -0.60930152     0.33297855
O      -7.77690929     6.43590683    -3.96601027     0.05121911    -0.02454922     0.35696103
O      -7.88089529     6.37173260    -7.98527681     0.23952882    -0.23928131     0.65812990
O      -4.13840810     4.24304007    -1.87423021     0.32651576     0.42677506    -0.87069016
O      -3.96779356     4.43752861    -5.91480264     0.24101500    -0.33842885     0.99306385
O      -7.96971532     4.48247555    -9.95971162     0.34051880    -0.23204695     0.46818377
O      -7.93443235     4.59068183    -5.96500340    -0.18327594    -0.85126676    -0.69755738
O      -4.01430971     0.06027916    -9.87129584    -0.40659013    -0.18723843    -0.47713597
O      -7.98257813     8.74446939    -6.13285741    -0.91600214    -0.02397696    -0.19436455
O      -0.11738401     0.05376340    -2.22644839     0.85934407    -0.33294988     0.56269193
O      -7.68938519     0.02459400    -9.84664188     0.41333236    -0.13662056    -0.51804708
O      -1.96640148     4.07095066    -3.97652352    -1.22126679     0.42829609     0.05579782
O      -9.76115192     4.83544147    -4.01296782    -0.58977038     0.00114144     0.27667493
O      -5.94213894     4.16481833    -4.16174491     0.44968849    -0.09192755     0.99085522
O      -5.92426072     4.42106699    -7.89279523     0.51419564     0.12802084    -0.05831509
O      -2.01906101     0.22763528    -4.14870807    -0.32456340    -0.17308589     1.38334771
O      -5.71140606     8.33137553    -7.90295771    -0.63631484     0.17493112     0.29522888
O      -9.88711171     8.57897443    -4.07333407     0.04575130     0.96255461     0.20768156
O      -5.94405249     0.69620706    -8.04634326     0.41154974    -1.69570684     0.35033954
