# total energy = -630.64049137 eV

CRYSTAL
PRIMVEC
        0.00285542     0.02004370    -7.95977623
       -7.82940539     0.00763210    -3.98158109
       -3.91729101     8.74642787     0.01461334
PRIMCOORD
56 1
Li     -3.81531553     2.23379199    -1.88708142    -0.41307275     0.19644933    -0.29584194
Li     -4.02407270     2.12391253    -5.98236700     0.14303786    -0.31273413     0.25565548
Li     -7.76675995     2.58429497    -9.87310110    -0.31876121    -0.19294816    -0.49179575
Li     -7.91013194     2.31909802    -5.81896783     0.81151051     0.11045314    -0.28074017
Li     -3.82947309     6.43025741    -1.80812273     0.10198203     0.12522777    -0.72592864
Li     -3.78471986     6.45292967    -5.91937841    -0.55981543    -0.01474018     0.23045400
Li     -7.86607256     6.65638664    -9.86266667    -0.23079828    -0.29585892    -0.26019912
Li     -7.68369507     6.38861325    -5.73063415    -0.54082411     0.25312992    -0.87299656
Ti     -2.01838524     2.30923999    -4.11454007     0.22537451    -0.97581553     0.43148266
Ti     -5.86611411     6.67257453    -8.02602743     1.03768364     0.23284717     0.23762959
Ti     -7.73839443     4.37956016    -7.75263695     0.02744150    -0.41242918     1.46410733
Ti     -7.87548402     4.54545975    -3.74680406    -0.17589463    -1.51836403    -1.16715165
Ti     -3.76189236     4.21113010    -7.66597233    -0.48398032     1.59136905    -1.60723244
Ti     -4.08147359     4.44959494    -3.70066799     0.47551455    -0.50312930     0.68600978
Ti     -2.24011774     0.03039609    -2.19703385     1.13568113    -1.06744067     1.08619110
Ni     -5.88635062     2.25430151    -8.03949272     0.41081764     1.20625935     0.41139409
Ni     -5.94552465     2.20369736    -4.01514165    -0.19179195     0.20871146     1.12604167
Ni     -9.70579436     6.57322703    -7.85884564    -0.81839328     0.26502494     0.78116507
Ni     -9.77400903     6.51750663    -3.92052980    -0.25662530    -0.49128908    -0.85462369
Ni     -1.87963807     2.09106690    -7.88535955    -0.01934846    -0.42712437    -0.12296266
Ni     -5.80787360     6.59935381    -3.92978195    -0.13598761     0.21963571    -0.05068613
Ni     -5.89417923     8.66322263    -5.90186286    -0.07120743     1.63634035     0.17723957
Mo     -6.06393837     0.07604170   -10.23570596    -0.18814815     1.00643260    -0.14835381
Mo     -9.76841209     8.74311278    -6.32462202    -0.34134976    -0.68104984     0.13332462
O      -1.84360322     1.85772459    -1.97044263    -0.95066607     0.30072457     0.02960987
O      -1.83405670     1.81164777    -5.98377291    -0.91275350     0.06388610     0.07065337
O      -5.88216341     6.75273917    -1.95822215     0.18771434    -0.00857638    -0.63565491
O      -5.86859737     6.92851328    -5.79884712     0.28900017    -1.77037658    -0.92021230
O      -5.96214474     2.11497235   -10.06541382     0.57187230    -1.69910772    -0.10931515
O      -5.91538616     1.94126369    -5.83012454     0.33703599    -0.15881130    -0.55032867
O      -9.78756922     6.97762384    -9.63521251     0.29737377     0.13686483    -1.04701333
O      -9.76346289     6.78963192    -6.03359607     1.05409185     0.09814751     0.55750042
O      -3.95707811     2.33149166    -3.90447083     0.53841605     0.59587466    -0.93621261
O      -3.84145571     2.32437232    -7.95561850    -0.07574368     0.38571215     0.63532504
O      -7.86904553     2.48890930    -3.89217816     0.06646159    -0.00961905    -0.31415261
O      -7.79861491     2.42835832    -7.92965695    -0.45131041     0.06749105    -0.40747459
O      -3.88747493     6.41928423    -3.79851592     0.55089102    -1.22787458    -0.57824093
O      -3.90949696     6.33179624    -7.96259704    -0.59792516    -0.30882823     0.87992630
O      -7.72987325     6.43602885    -3.89647505    -0.55466023     0.56075645     0.02582019
O      -7.75440288     6.32417212    -7.95395270    -0.88558044     0.10499549     0.50594607
O      -3.73610140     4.24932263    -1.95006362    -0.82829798     0.53056218    -1.33429067
O      -3.82179948     4.50733439    -5.94847770     0.04308980    -0.68279167     0.91368527
O      -8.03468865     4.54628534    -9.98905779     0.44316246    -0.41537134     2.06078156
O      -7.68065745     4.39983402    -5.96421745    -1.03282674     0.22047156    -1.05379964
O      -4.03228924     0.05545123    -2.19829351    -0.58467408     0.30139981     0.07972003
O      -4.01010282     0.09007751    -6.02025604     0.16690258    -0.38677178     0.21903346
O     -11.50734044     8.72501975    -5.98084784    -0.49540165    -0.05288853    -0.01765443
O     -11.72715294     8.74963465   -10.02575265    -0.20527346     0.06143781    -0.31005191
O      -1.97170843     4.09884492    -4.10733138    -0.07295338     0.59498329     0.45467979
O      -9.76120231     4.72413638    -4.12181384    -0.21912466    -0.87883711     0.37917539
O      -5.95737294     4.38543625    -4.08169162     1.60464602     0.30660441     0.84278864
O      -5.85176359     4.28088565    -8.00844653     0.83371275    -0.24004343    -0.17145178
O      -5.68915928     8.73420236    -3.94449504    -0.31050571     1.03376305    -0.45477781
O      -6.10725922     8.44213957    -8.13635729     0.81839203     0.64271803     1.03184180
O      -9.90251811     8.28701895    -4.01028283     0.53114724     1.42529014     0.22268749
O      -5.88402335     0.43496783    -8.14459570     0.11487311     0.48972446    -0.16118319
