# total energy = -630.81320564 eV

CRYSTAL
PRIMVEC
        0.00279571     0.02951795    -7.98606283
       -7.83802570     0.01298533    -3.99532603
       -3.92160916     8.71933433     0.00634407
PRIMCOORD
56 1
Li     -3.97636128     2.46000072    -1.99743846    -0.04708927    -0.30459654     0.39395884
Li     -3.83879260     2.24138389    -6.05748410    -0.71560284    -0.11004343    -0.09291067
Li     -7.80487921     2.32200970    -9.99988416    -0.37526140    -0.03121240    -0.00913321
Li     -7.88875430     2.10677304    -6.06174619     0.25260588     0.16437994     0.16407664
Li     -3.79123672     6.34509782    -2.04473467    -0.62040059     0.35447899     0.35692305
Li     -3.85637211     6.37172593    -5.80054814    -0.13894803    -0.05510806    -0.61740571
Li     -8.00372093     6.39593563    -9.87523851     0.69413962     0.10465685    -0.15715052
Li     -7.91519513     6.43477121    -5.90088078     0.50333856    -0.05515245    -0.11320744
Ti     -2.03280779     2.16201580    -4.02485802     0.82108370     0.12489201     0.45842848
Ti     -5.76536433     6.62928200    -7.87874131    -1.67418244     1.02196832    -0.44089331
Ti     -7.81257243     4.40564287    -7.86456335    -0.06836054     0.32610118     1.40569755
Ti     -7.73323934     4.36807152    -3.81080865    -0.71801622    -0.51872385    -0.81429431
Ti     -3.72655993     4.40187553    -7.81938047    -0.06272796    -0.52144111     0.31484011
Ti     -4.00599807     4.39186979    -3.84595005     0.45889665     0.17965734     0.41467032
Ti     -6.15963774     8.60700421    -2.05934172     1.52874198     0.54292580     0.83193097
Ni     -5.90035540     2.44902533    -7.95279921     0.86430503     0.16789796    -0.47518109
Ni     -5.93895249     2.12589210    -3.99730475     0.18885370     0.12692946    -1.16680861
Ni     -9.81664841     6.51651424    -7.81881533     1.13457483     0.88340956    -0.36873135
Ni     -9.71080722     6.52321710    -3.97957074    -0.51819743     0.05243907     0.24491096
Ni     -1.93273649     2.16864657    -8.02754014     0.56503435    -0.59206281    -0.54145815
Ni     -5.93137494     6.56492085    -3.94927182     1.08954100     1.12017292     0.20809166
Ni     -5.92986267     8.69780675    -5.99341403    -0.76493880     0.75052871    -0.38677553
Mo    -10.00638671     8.75029573   -10.28614583     1.05973093     0.85007619     2.30612360
Mo     -9.78787923     8.70527377    -6.25645332     0.56568655     0.56702900    -2.72610466
O      -2.00378817     1.84826346    -2.02682835     0.08320519     0.87131999    -0.23884867
O      -1.98828795     1.83776344    -6.18638307     0.58775851    -0.03398091     1.83393060
O      -5.74285467     6.75030377    -1.94571548    -0.64200168     0.00769060    -0.04926489
O      -5.97512237     6.84756240    -5.90276907     0.50936438     0.11662385    -0.48189610
O      -5.92934846     2.06163943   -10.17302049     0.20878713    -1.50880521     0.76455665
O      -5.80607789     1.90088822    -5.91256031    -0.38404104     0.96296608     1.07682882
O      -9.77338049     6.80035979    -9.67890810    -0.94314710     1.76240685    -1.07397716
O      -9.75959180     6.77399280    -5.91668466    -0.14108938    -0.19632594    -0.56568311
O      -4.03733797     2.41249513    -3.92970427     1.04408545    -0.38141631    -0.71235556
O      -3.76553889     2.49306286    -8.04398114    -1.20116525     0.42421265    -0.09206099
O      -7.82409190     2.41615736    -4.18442784    -0.27593446     0.08925355     0.94815911
O      -7.81983770     2.42723539    -7.99579511    -0.77897263    -0.00239764    -0.38746716
O      -3.79165684     6.36219413    -4.00166426    -0.79670228    -0.50796439     0.74401184
O      -3.96182769     6.43261928    -7.91902254     1.68543951    -0.38536890     0.22596533
O      -7.81414144     6.37126109    -3.88797204    -0.35377488    -0.17010327    -0.34687718
O      -7.86115295     6.40440783    -7.96518529     0.12605601    -0.83679992     0.20921588
O      -4.02282972     4.44860554    -2.06171432     0.42886394    -0.29360954    -0.09355703
O      -3.85375253     4.36433697    -6.06077101    -0.21107278     0.18870981     0.47063569
O      -7.71475501     4.25822808   -10.05524477    -0.65156908     0.26032200     1.03671139
O      -8.00467655     4.35283543    -6.10914658     0.33477303     0.22347461    -0.27114584
O      -7.88940890     8.65548276   -10.01738891    -2.54259326     0.16545712    -0.19850394
O      -4.00517881     0.11008502    -5.98922132     0.43067239    -0.80827721    -0.08068579
O      -7.62955562     0.06839917    -6.12665896    -0.35705490    -0.45663690     0.72629576
O      -7.80907860     0.11310376    -9.97657103     0.43279514    -0.54875459    -0.50754377
O      -2.01230298     4.05687422    -4.13692808    -0.09800909    -0.29099905     0.06688649
O      -9.69376486     4.66052902    -4.06092961    -0.40798419    -0.09690194     0.09052507
O      -5.89421646     4.71316787    -4.07405052     0.44947771    -0.24190273    -0.62779642
O      -5.84140558     4.50711396    -7.93839379    -0.14106253    -0.43891632    -0.17887335
O      -1.81911923     0.17156926    -3.89482844    -0.70020026    -0.32700100    -1.47113468
O      -5.80563833     8.58259342    -7.99007488    -0.03319354    -1.57038492    -0.25179976
O      -9.78295991     8.39076144    -4.06306080    -0.13794541    -0.07676069     0.36564094
O      -5.88148368     0.64643295    -8.07729309     0.37486372    -0.74863240    -0.13793583
