# total energy = -629.88193164 eV

CRYSTAL
PRIMVEC
        0.00279571     0.02951795    -7.98606283
       -7.83802570     0.01298533    -3.99532603
       -3.92160916     8.71933433     0.00634407
PRIMCOORD
56 1
Li     -4.10656915     2.26276555    -1.86300214     0.22578435    -0.22439590    -0.21118725
Li     -4.10140579     2.15509887    -6.03325104     1.24899487     0.37995638     1.03796346
Li     -7.78744184     2.38508988    -9.88841553    -0.52158138    -0.26392187    -0.09616689
Li     -7.82510484     2.63095308    -6.01477655     0.05193968    -0.74952651     0.47620702
Li     -3.80909298     6.53437037    -2.03355636    -0.01618897     0.10967214     0.25216820
Li     -3.90752131     6.64967139    -5.82775421    -0.45261201     0.01477484    -0.50971164
Li     -7.76741808     6.58258931   -10.12612054    -0.41566323     0.05463171     0.80895636
Li     -7.86463514     6.35319776    -6.05549940     0.15844882     0.37759515     0.82492365
Ti     -2.01724247     2.25627176    -3.91818008    -0.65756060     0.56594109    -0.51118848
Ti     -5.74039334     6.71499838    -8.06842406    -0.37434718    -0.01923921     0.34471257
Ti     -7.71543717     4.50084896    -7.79572925     0.45137041     0.07853213    -3.33205330
Ti     -7.83414251     4.38539306    -3.67537941    -1.17595201     0.85871161     1.52116230
Ti     -3.89152810     4.27494783    -7.70999854    -0.04536308     1.09901622     0.20363060
Ti     -4.21545674     4.41709430    -3.68376339     1.39274110    -0.42508204    -1.13572678
Ti     -1.60487018     0.17071664    -1.97019895    -0.95619424    -0.35373100    -0.76122291
Ni     -5.93957714     2.07686750    -7.94376849     0.29851062    -0.14308585     0.73256805
Ni     -6.06024831     2.14239191    -4.04234076     1.02791412     0.07041881     0.38633856
Ni     -9.93432152     6.28136459    -8.20634415     0.55161581     0.12000005     1.44703466
Ni     -9.74800622     6.44402022    -3.95458296    -1.13484963     0.42916014    -1.51873250
Ni     -2.01483098     2.34598156    -7.96825061     0.25946627    -0.92205912     0.03890000
Ni     -5.88536207     6.70337230    -4.02917165    -0.85577088     0.54055154     0.46259131
Ni     -2.03454080     0.08536620    -5.99934665     1.40428571    -0.41040154    -0.13247641
Mo     -9.76598326     8.68783157   -10.23406722    -1.44232330     0.13487621    -0.99847997
Mo     -9.64223849     8.70062666    -6.37374003     0.08648518    -1.86346326     1.15972143
O      -1.95269048     2.13811002    -1.99934792    -0.05453309    -0.55614641    -0.05489484
O      -1.85217361     1.87875844    -6.21315850    -0.93399453     0.61967390     1.57982925
O      -5.92809672     6.94962588    -2.10274077     0.47087777    -0.15162871     0.56954917
O      -5.85442391     6.96578813    -5.83381275    -0.73657143    -0.16197561    -1.52560705
O      -5.99827778     1.82996111    -9.76266852     0.45336676     0.80123988    -0.00379745
O      -5.83975643     1.79563868    -6.01847159    -1.89364022     2.26582008    -0.36681574
O      -9.83119541     6.65854394   -10.11964278     0.59533749     0.81755697     0.48656061
O      -9.74382030     6.79091165    -5.85361542    -0.28095467     0.57743149    -0.13521522
O      -4.02337883     2.40141406    -3.97228391     0.53625025     0.02726158    -0.08682987
O      -4.03731846     2.33618049    -7.83153094     0.36800810     0.79274358    -1.24172963
O      -7.95557903     2.50834249    -3.89502267     0.07885666    -1.34523559    -1.17861006
O      -7.83307078     2.45012138    -7.96646793    -0.23974549     0.46686099     0.31003303
O      -4.07149828     6.41526136    -3.94415109     0.89788608    -1.67901469     0.21398334
O      -3.86681477     6.48130735    -7.99854990    -0.34755281    -0.61540797    -0.06698401
O      -7.91939162     6.26235135    -4.06244777     1.41990122     1.00789332     0.35979850
O      -7.80905308     6.40356817    -7.91774798     0.17650897    -0.07113135    -0.78918372
O      -4.16773534     4.22311668    -1.95868938     0.59568387     0.49022906     0.62767032
O      -4.08308615     4.39272814    -5.97268230    -0.07996469    -0.07021057    -0.47411527
O      -8.03401732     4.48865545    -9.85697888     0.70345567    -0.21482490    -1.06094954
O      -7.86759039     4.43190856    -6.09729416    -0.12884063    -0.06952750     2.26988463
O      -4.07483775     0.10200244    -9.86672369    -0.39341756    -0.37842419    -0.58838878
O      -3.97977815     0.08775114    -6.10691912     0.65027038    -0.28599554    -0.30106511
O     -11.58477237     8.73300069    -5.99620842    -0.37639895     0.07854356    -0.12429039
O     -11.62192623     8.63987514    -9.94384637     0.41747803     0.11237195    -0.42579428
O      -2.16874005     4.32341805    -4.06821848     0.43270984     0.23939773     0.31212963
O      -9.76529245     4.43526816    -4.02017367    -1.81256277    -0.42936729    -0.11203814
O      -6.05961479     4.07037818    -3.96782211     1.30569868    -0.65615034    -0.56704756
O      -5.78321035     4.77963938    -8.12804716    -0.93444810     0.03003997     0.68472459
O      -1.84936559     0.39518629    -4.00689452    -0.69099752     0.47053677     0.50470836
O      -5.87640769     8.69720352    -8.14701449     0.23715952    -0.91887718     0.88168157
O      -5.88026307     0.27379655    -4.10008419     0.21472007    -0.48102804     0.76446429
O      -9.89490138     8.12768871    -8.05581215     0.31316678    -0.34812507    -0.88618727
