# total energy = -630.74038205 eV

CRYSTAL
PRIMVEC
        0.00279571     0.02951795    -7.98606283
       -7.83802570     0.01298533    -3.99532603
       -3.92160916     8.71933433     0.00634407
PRIMCOORD
56 1
Li     -3.94777843     2.13499048    -2.01724219     0.01456859     0.39318523     0.42233363
Li     -4.04683977     2.21231274    -6.02481275     0.28442772     0.05721755    -0.20218163
Li     -7.66521325     2.34662774    -9.99209366    -0.44199613     0.07377640     0.21118147
Li     -7.84325247     2.28525846    -5.82062486    -0.11310817     0.00595544    -0.55744530
Li     -3.86417205     6.77062152    -1.91607014    -0.06588904    -0.58183847    -0.28732877
Li     -3.99733820     6.40307848    -5.84973462     0.33043224     0.15502137     0.06809238
Li     -7.99994739     6.81742445   -10.09053503     1.63890240    -0.66487639     0.96880918
Li     -8.00399870     6.28330047    -5.81206219     0.92165947     0.45699184    -0.62290591
Ti     -1.95995463     2.30986128    -4.12728185    -0.39579868     0.87513685     0.30914238
Ti     -5.85370243     6.77454875    -7.99570999    -1.64099287    -0.23214851     0.89882261
Ti     -7.72500415     4.36225915    -7.73195143     0.04519427     1.28553631    -0.74057133
Ti     -7.93191575     4.37928865    -3.68106996     0.39138153     0.31586514     1.54402726
Ti     -3.91551065     4.45327676    -7.74226381    -0.36984970    -1.19004751     0.20618262
Ti     -4.09314887     4.32427386    -3.77103474    -0.30947852     0.29835185     2.01239941
Ti     -2.04194126     0.07280017    -2.13613361    -0.27024566     1.29978303     0.40850527
Ni     -5.86612333     1.98425340    -7.89659592     0.00433742     0.82527529    -1.76832761
Ni     -5.92106216     2.20390220    -4.10453514     0.21879632     2.25408217     0.29292634
Ni     -9.84288788     6.30102291    -8.01341390     0.69993125     0.65118545    -0.10685755
Ni     -9.73119893     6.68077225    -4.01672244    -0.02263113    -0.02106142     0.65444113
Ni     -1.94206373     2.22448317    -7.94958948    -0.54551846    -2.49907596    -0.61301423
Ni     -5.90434313     6.56432730    -3.94875092     0.26091040     0.20965976    -0.47688038
Ni     -1.91716140     0.09345679    -5.92595485    -0.11817923    -0.06686932    -0.53616308
Mo     -9.87028735     8.68915201   -10.33578039    -0.75233187     0.58674784     0.84816986
Mo     -9.81733011     8.68487913    -6.34336803     1.14483210     1.53049583    -0.85695636
O      -1.92491663     2.03118953    -2.02268603    -0.14320245    -0.63891296     0.22638621
O      -1.85479867     1.97691051    -6.07421343    -0.40375730    -0.67797200     1.02948113
O      -5.81149101     6.86908204    -1.98792624    -0.19933758     0.14124983     0.20353756
O      -5.84685301     6.96573414    -5.90409746    -0.21617194     0.08422566     0.04884532
O      -5.86325668     1.87098349    -9.86665979     0.18541939    -0.40171459     0.50414429
O      -5.96643213     2.00811253    -6.08803312     0.23299809    -0.33038579     0.44718746
O      -9.74367175     6.78777192   -10.03156521    -0.81180267    -0.20196261    -1.15486605
O      -9.77463861     6.81082220    -5.95730306    -0.53028125    -0.80306752     1.46675527
O      -3.95865344     2.32040121    -4.11481902     0.73364066     0.65234628     0.44534336
O      -4.05502170     2.48809422    -8.03170091     0.05217718    -0.60833783     0.84998471
O      -7.78934929     2.44625709    -3.95899588    -0.05623972    -0.31285131     0.03267969
O      -7.81252040     2.45134377    -8.02385282    -0.06680303    -0.22345717     0.24208009
O      -3.97654349     6.27422862    -3.84996084     0.10123418    -0.00217680    -0.54719663
O      -3.76939518     6.36894449    -7.92996465    -0.81902578     0.83840151    -0.43784113
O      -7.79670615     6.37890494    -3.92493920    -0.47047776    -0.18172387    -0.29991610
O      -7.86106393     6.42384282    -7.90921564     0.37614881    -0.63536230    -0.27963886
O      -3.88159333     4.22601373    -1.98379675    -0.15844274     0.21167373    -1.08124728
O      -3.92669938     4.43502560    -5.94484360    -0.18429835    -0.12731555    -0.84568059
O      -7.92657640     4.44337345    -9.87181513     0.24756560     0.06117287    -1.49198295
O      -7.75848642     4.44095732    -5.98781954    -0.58745855    -0.27760334     0.66320882
O      -3.92969861     0.11745019    -9.90139859    -0.10007250    -0.71535740    -1.11533103
O      -4.13716875     0.16559869    -6.07291803     0.64013534     0.11683389     0.30065591
O      -7.70908371     0.11034527    -6.07501021    -1.17361117    -0.50218698     0.07250838
O     -11.59841726     8.70287641    -9.92708850     0.35641566    -0.01718193    -0.46278892
O      -2.01429828     4.32689210    -3.99532170     0.51925431    -0.50847732    -0.12715806
O      -1.99620381     3.96077418    -7.82872472     0.17113719     1.87544907    -0.78074167
O      -5.98696847     4.23594120    -3.97801099     0.50372031    -0.81766742    -0.09540206
O      -5.91064507     4.84321312    -8.04171936     1.56416718    -0.08064979     0.20905006
O      -1.90712799     0.41572416    -3.97987771    -0.22201464    -0.82729998    -0.77824468
O      -1.86910539     0.03414064    -7.95203854     0.01142566    -0.49259148    -0.21089204
O      -5.97673248     0.41802845    -4.14348968     0.23626446    -1.34275358     0.84755450
O      -9.72958698     8.14552003    -8.10948223    -0.62682178     0.26817001     0.13818770
