# total energy = -630.83592502 eV

CRYSTAL
PRIMVEC
        0.00279571     0.02951795    -7.98606283
       -7.83802570     0.01298533    -3.99532603
       -3.92160916     8.71933433     0.00634407
PRIMCOORD
56 1
Li     -4.02519226     2.19125337    -1.94556490     0.53380276    -0.09705249     0.30170627
Li     -4.10074515     2.06121341    -5.89180707     1.38443687     0.32272347    -0.72251772
Li     -7.90955589     2.11190951    -9.87455480     0.52813451     0.19657092    -0.75998347
Li     -7.82937848     2.26380960    -5.88566480    -0.42384710    -0.33261717    -0.46941363
Li     -3.84979790     6.38556254    -1.86220308    -0.00222823     0.38440516    -0.05322589
Li     -3.92315284     6.34662423    -5.93481112     0.17641759     0.11199682     0.36289138
Li     -7.94956929     6.65011360   -10.05628157     0.83772746    -0.03760677     0.81467459
Li     -7.86829803     6.41378389    -5.70181158    -0.18384082     0.55142970    -0.99668895
Ti     -1.96295469     2.40828872    -3.98977103    -0.01657213    -0.12583036    -0.04178877
Ti     -5.92337226     6.73825476    -7.84464234     0.48246703     0.81672127    -0.21858422
Ti     -7.60427172     4.42167262    -7.65904615    -2.18636479     0.12038537    -1.16213240
Ti     -7.93901802     4.39882467    -3.62090915     1.03052897    -0.49146139    -1.53573954
Ti     -3.94021036     4.33094116    -7.72875211     0.74272732    -0.47576304     0.96710058
Ti     -4.04769056     4.36068199    -3.62197397    -0.15819182     0.53197652    -0.42979150
Ti     -5.99103624     8.65980884    -2.32141113     0.45563095     0.45722831     1.63670737
Ni     -6.02303088     2.14975489    -7.96238754     2.20356673    -0.06258029    -0.38563470
Ni     -5.90490980     2.31548798    -4.20760799     0.17739877     0.91562014     0.96637218
Ni     -9.80862244     6.30744308    -8.09776808     0.57236223    -0.36583630     0.25391909
Ni     -9.79384623     6.53418702    -3.96316860    -0.01519117     0.23428609     1.73117158
Ni     -1.98767512     2.25835052    -7.95234562     0.06786924    -0.17149696    -0.42023028
Ni     -5.89805252     6.53878770    -3.99857024     0.21905916     0.43718942     0.79333107
Ni     -1.93460883     0.08730759    -6.02948587    -0.58081124    -0.90719848     0.34496712
Mo     -5.94682646     0.06771736   -10.24586103     0.24395759    -1.93736065    -1.74786603
Mo     -9.78852106     8.72435820    -6.39021445    -1.26350783    -1.27319326    -0.14161862
O      -1.99695496     1.94623372    -2.12049795     0.30159945     0.16426363     0.81708161
O      -1.93828421     1.90267557    -6.07154419    -0.07582901     0.02910053     0.15076882
O      -5.76214910     6.82492606    -2.01616527    -0.67398422    -0.82853834    -0.23675646
O      -5.96035644     6.86866713    -5.88239019     0.73703848     0.57973085    -0.45641262
O      -5.90185008     1.86777788    -9.90457545    -0.02969633     1.50040033     1.78045552
O      -5.89282489     1.94281563    -6.09288813    -0.99247791     0.38113062    -0.34828265
O      -9.77196026     6.78286149   -10.07393860    -0.46157753    -0.25915654    -0.65651332
O      -9.79849613     6.94553534    -5.68851934     0.12050137    -0.36749046    -1.51065920
O      -3.86738751     2.41857512    -4.03190106    -0.70418271     0.31699006     0.38728672
O      -4.01938044     2.36395388    -7.96427164    -0.26040537     0.31001569    -0.05972152
O      -7.82726747     2.42710480    -4.09061592    -0.56662508     0.52623290     0.98412308
O      -7.85522447     2.45741143    -8.02141496     0.19266536     0.05780153     0.71080368
O      -3.90817070     6.25302517    -3.88721144    -0.20389450    -0.19918563    -0.61812558
O      -3.86606634     6.36817270    -7.88233916    -0.52075998    -0.12013214    -0.12124283
O      -7.84307022     6.39385239    -3.91054224     0.20461166    -0.80869519     0.35931137
O      -7.82935676     6.41106748    -7.93064577     0.12968723    -0.87980799    -0.40474127
O      -3.78354550     4.36558000    -1.84274081    -0.34790814    -0.23633822    -1.24081990
O      -3.80395060     4.33448199    -5.95689953    -0.07785832     0.17314183    -0.16839827
O      -7.65303405     4.41352369    -9.90899522    -0.13237307     0.12288283     0.92579664
O      -7.77344256     4.57103955    -5.94971778    -0.28120971    -0.84303632     0.88101141
O      -7.86479587     8.66872629    -2.10985497    -0.38559504     0.07645985     0.09007304
O      -4.06660674     0.03309821    -6.21265178     0.08825072     0.55497317     0.70693953
O     -11.65501397     8.70345251    -6.12291684     0.46980461     0.74859354    -0.14684425
O     -11.61239453     8.68886911    -9.98731757    -0.86382492     0.10452620    -0.11327594
O      -9.71537047     4.34753654    -8.06258953    -0.55632261     0.14288908     0.53655638
O      -1.93109002     4.24073793    -7.93951642    -0.30860107    -0.15007907    -0.00347228
O      -5.85965539     4.12294913    -4.05942072    -0.49539476     0.73694103     0.37566872
O      -5.81079306     4.61782019    -7.81355792     0.49051304     0.68009819    -0.73534012
O      -1.94586131     0.38876524    -4.04402401     0.07792033    -0.09784532    -2.41841866
O      -5.89149760     8.56475896    -7.98861461     0.24880656     0.18344616     0.36304502
O      -5.88743307     0.54417765    -4.04604791     0.04200764    -1.64415399     0.09425898
O      -9.79552890     8.11608735    -8.17365227     0.00819061     0.82315482     1.02308919
