# total energy = -630.65336045 eV

CRYSTAL
PRIMVEC
        0.00285542     0.02004370    -7.95977623
       -7.82940539     0.00763210    -3.98158109
       -3.91729101     8.74642787     0.01461334
PRIMCOORD
56 1
Li     -3.99013650     2.18882893    -1.85953625     0.57960990     0.00524193     0.01944082
Li     -4.05168157     2.16669141    -6.04110206     0.64058974    -0.25569505     0.39836123
Li     -7.74735816     2.30622387    -9.95131809    -0.35141289     0.20169952     0.19873938
Li     -7.69853538     2.07420221    -5.81192581    -0.77220676     0.32465718    -0.42962470
Li     -3.78480054     6.41905030    -1.96773661    -0.62289307     0.22705701    -0.00379875
Li     -3.87988606     6.45739464    -5.82201500     0.15465533     0.05046859    -0.16058125
Li     -7.93489658     6.39358422    -9.87262428     0.02473315     0.00166262    -0.01581052
Li     -7.74649567     6.72234544    -5.74914979    -0.27401762    -0.01104593    -0.32339789
Ti     -2.01080937     2.22200819    -4.03784014     1.77938790    -0.92208973    -0.49915007
Ti     -5.79714337     6.67846147    -7.90889183    -0.33443019     0.75445631    -0.53631807
Ti     -7.79460726     4.45788705    -7.65328338    -0.26842884    -0.06518917     1.44033283
Ti     -7.77938326     4.35888684    -3.82172243     0.28327994     0.49547811     1.00385073
Ti     -3.90132860     4.39267009    -7.62937442     1.51216005    -0.03866722    -1.11924765
Ti     -3.86899897     4.27778141    -3.70096101    -1.74811418     1.80344329     0.27859943
Ti     -2.14762883     0.04682724    -2.04349696    -0.47900619    -1.26767675    -0.22483952
Ni     -5.82881423     2.48184024    -7.98441129    -1.15406010    -0.95924727     0.05716095
Ni     -5.90925417     2.15545567    -3.99236567     0.99753166     0.07832707    -0.15766821
Ni     -9.87261850     6.49507182    -7.90031967     0.77780055     0.77408626    -0.55477520
Ni     -9.72111964     6.32784702    -4.09748167    -2.87198872     1.43046192    -0.01758630
Ni     -1.97272128     2.16924395    -7.96147923     0.67468279    -0.15455688     0.67367005
Ni     -5.82967619     6.54740187    -3.87725592    -0.52595301    -0.60738848    -0.16015856
Ni     -5.74067868     8.72082668    -5.92671770    -1.47938488    -0.00709408    -0.27035949
Mo     -5.95339084     0.13176120   -10.29389794    -0.64726554    -1.93218987    -0.13851579
Mo     -9.82269303     8.70693630    -6.39426471    -0.82589063     0.00054005    -1.45267451
O      -1.98701383     1.92611277    -1.90517186     0.34193072     0.29737923    -0.48300401
O      -1.98489354     1.80693839    -5.98680227     0.15873428     0.42703356     0.29053917
O      -5.96588275     6.77964044    -1.95731178     0.38405205     0.64500799     0.36248739
O      -5.82390503     6.83733054    -5.95659950     0.24116282     0.69593066     0.56848520
O      -5.77432369     2.05547133   -10.10373851    -1.06431517     0.01044137     0.21234807
O      -5.86288639     1.91312376    -5.86282659    -0.55791347     0.12604953     0.04271897
O      -9.76537249     6.96196211    -9.70654680    -0.81308932     0.85071774    -0.43929363
O      -9.70964857     6.78364000    -6.11091365    -0.83365131    -0.52970308     1.31400255
O      -3.92306052     2.32595207    -3.93301502    -0.04672121     0.31155088    -0.24578638
O      -3.90142550     2.46670933    -7.93269154    -0.09398045     0.31526871    -0.02652106
O      -7.75736532     2.39012197    -3.90082748    -0.82915034    -0.58441639    -0.75874396
O      -7.84666307     2.51586930    -7.91446228     0.34464892    -0.53801056    -0.25898057
O      -3.90557454     6.27576731    -3.95181120     0.52329607     0.24158783     0.03972434
O      -3.87502213     6.38689698    -7.93416190    -0.50190099    -0.23662736     0.06734230
O      -8.00353303     6.37787308    -3.85622695     3.12714286    -0.57606257    -0.54492015
O      -7.94071319     6.39222581    -7.88598126     1.06830279    -0.75325703    -0.12425110
O      -4.14357270     4.53118377    -1.98626601     0.81127785    -0.97244033     0.13653271
O      -3.83937638     4.37929009    -5.89977115    -0.02808541    -0.02548239     0.66289226
O      -7.90193451     4.25951702   -10.00597439    -0.02280231     0.55662317     0.59730910
O      -7.86211258     4.32937070    -5.86864248    -0.02794923     0.05500700    -1.62099304
O      -4.01664495     0.09129841    -9.90074110     0.37851802     0.27792418    -0.71345121
O      -8.11749182     8.71998107    -5.97781943     2.02269289     0.14934048    -0.00174832
O     -11.64630384     8.68939276    -6.20215371    -0.69237484     0.05138955     1.10563770
O      -7.75607242     0.16271304   -10.04526180     1.30864094    -0.08992194    -0.21885346
O      -1.91775449     4.16974512    -3.97229416    -1.22128844    -0.55140462     0.13119632
O      -9.79815424     4.48858008    -4.15320708    -0.46157892    -0.21954455     0.41849504
O      -5.86038730     4.57696834    -3.99762697     0.04522115     0.24639142    -0.36024715
O      -5.84682806     4.58066277    -7.76208768    -0.34376872    -0.69416792    -0.75624986
O      -2.02542557     0.18947831    -3.97601652     0.24538414     0.18212204     0.38055782
O      -5.95787543     8.57354287    -7.93129467     0.67068826    -0.85727142    -0.24847255
O      -9.85604644     8.31839501    -4.08608304     0.30428970     0.05938063     1.14651112
O      -5.96785195     0.57803026    -8.18795237     0.72424078     0.82159171     1.30381707
