# total energy = -630.28657660 eV

CRYSTAL
PRIMVEC
        0.00279571     0.02951795    -7.98606283
       -7.83802570     0.01298533    -3.99532603
       -3.92160916     8.71933433     0.00634407
PRIMCOORD
56 1
Li     -4.02745574     2.21020906    -1.85721938     0.54698438     0.16625456    -0.13986706
Li     -3.99706858     2.38008351    -5.94266019     0.87711339     0.16991684    -0.12170781
Li     -7.96439712     2.25574469    -9.84925811     0.62682807     0.28914570    -0.67519118
Li     -7.77611987     2.04582652    -5.80907261    -0.57279395     0.26053122    -0.15996849
Li     -3.80781151     6.88426501    -2.13437332    -0.17787620    -0.19320506     0.43606603
Li     -4.08045402     6.52563060    -5.80596255     0.51020755    -0.05476416    -0.78019173
Li     -8.04626808     6.40195154   -10.11654327     0.30464038    -0.04410292     0.66036220
Li     -7.81676205     6.77762336    -5.88051210    -0.56698066    -0.28632191     0.00152938
Ti     -1.95938070     2.00903449    -3.93185013    -1.28535848    -1.11171903    -0.05153449
Ti     -5.84670971     6.39893462    -8.05699010    -0.18676771     1.23321450    -0.14252524
Ti     -7.94457644     4.36320500    -7.73298943     0.10080303     0.05832010    -0.28710113
Ti     -7.86194361     4.23340622    -3.77498977     0.78839421     0.87691897     1.61957511
Ti     -3.77367599     4.47151569    -7.80771805     0.74854985    -0.68247740     0.77878130
Ti     -3.95467295     4.39431937    -3.70875612     0.21933469     0.33155655     0.91864900
Ti     -6.11346571     8.65584966    -1.94606859    -0.24475665     0.04214737    -0.05663896
Ni     -5.89591259     2.39398356    -7.83373536     0.53091209    -0.18911163    -0.58190793
Ni     -5.78013145     2.37319383    -4.03375324    -0.89813196    -0.90536646     0.25684036
Ni     -9.88200046     6.37180919    -8.03825953     0.53756082     0.59449136    -0.32340880
Ni     -9.70597948     6.57959482    -4.10615778    -0.53091743    -0.05870581     0.56473337
Ni     -1.95985112     2.09296288    -7.89459844    -0.26772963     0.13029912    -0.15485004
Ni     -5.92316168     6.51197884    -4.07815580    -0.43564479     0.39569381     0.45919876
Ni     -1.98411379     0.09890294    -6.10454701    -0.47848622    -1.98102343     1.08674889
Mo     -6.01477607     0.12616206   -10.15975407     0.83511971    -0.82267968    -1.07629131
Mo     -5.80744802     0.22638051    -6.41725098    -1.83141803    -0.64144177     1.67808677
O      -1.90651103     1.81935483    -2.00969705     0.05555579     0.70391184     0.48830410
O      -2.00669882     1.88306665    -5.95307791    -0.01182189     0.78824383    -1.31520943
O      -5.76376138     6.79577777    -2.08395686    -0.35094931    -0.80170031     0.26163352
O      -6.01520936     6.95254931    -6.00495857     0.84991048    -0.44710738    -0.71470928
O      -5.87960847     1.92733261    -9.68304951    -0.14420827    -0.03441060    -0.07432849
O      -5.85575859     2.10834650    -5.98865337    -0.21881713    -0.03827373     0.19369272
O      -9.91299711     6.81038871   -10.10049917     0.52034130     0.59631579     0.36447195
O      -9.73659230     6.72571890    -6.04083361     0.08011326     1.02078136     0.08100198
O      -3.85664551     2.43341890    -3.85337108    -0.34131132    -0.65297819    -0.98272049
O      -3.81326797     2.45172194    -7.99504539    -0.80804804     0.07897204     0.76108117
O      -7.92091019     2.31726442    -3.92963371     0.83976945     0.25428901    -0.04714456
O      -7.95235304     2.36604573    -7.99226056     1.34340466     0.24823876     0.75627347
O      -4.07638259     6.31676660    -3.95542813     1.45813321     0.04137685    -0.27621008
O      -3.90858098     6.46219400    -7.83961169    -0.54737928    -0.77544880    -1.33448228
O      -7.77698217     6.37414259    -3.91850089    -0.31788399    -0.81090173    -0.86137035
O      -7.86857365     6.21694030    -8.26327916     0.41086384     0.49296320     1.58701287
O      -3.93594019     4.19225389    -1.95637234     0.02486757     0.61441923     0.05379323
O      -3.76593072     4.34316277    -6.03945767    -0.35942642    -0.18352591    -0.15747558
O      -7.70534190     4.26213493    -9.91042040    -0.13963913    -0.14924024    -2.26203231
O      -7.82021066     4.31118044    -5.98457301     0.54043215    -0.04853954    -0.01676349
O      -3.99354052     0.04315868    -2.04678705    -0.58898372    -0.18200825     0.42103964
O      -4.06863762     0.16593946    -6.04994307     0.32570576    -0.34495623    -0.11754384
O      -7.62900140     0.08550496    -5.91741751     1.22975953     0.13398345    -0.88088161
O      -7.75342097     0.14742297   -10.07744512    -1.50454011    -0.21286276     0.46821151
O      -1.99871952     4.34532529    -3.98145159    -0.05693141     0.45001200    -0.21134667
O      -9.66196213     4.59544256    -4.04552358    -1.24284683     0.67809264    -0.23077246
O      -5.81871184     4.24750918    -4.16559721    -0.92870636     0.25236281     0.26277295
O      -5.77541210     4.51736882    -7.98872328    -0.63039770     0.43510992     0.12492224
O      -2.13028437     0.10029193    -4.09234926     0.95025070     1.51304145     0.33609609
O      -5.92943709     8.42408050    -8.10086803    -0.00251382     0.34802905     0.92916175
O      -5.86981228     0.03292232    -3.97734200     0.39184593    -0.40307639    -0.20339805
O      -9.81036578     8.31607726    -8.09134551    -0.07658432    -1.44214962    -1.32395831
