# total energy = -630.87708149 eV

CRYSTAL
PRIMVEC
        0.00285542     0.02004370    -7.95977623
       -7.82940539     0.00763210    -3.98158109
       -3.91729101     8.74642787     0.01461334
PRIMCOORD
56 1
Li     -3.86135095     2.50060772    -1.84374386     0.10890926    -0.34840568    -0.48212325
Li     -3.84620213     2.10546175    -5.95662491    -0.56216315     0.18058744    -0.39073576
Li     -7.79563421     2.32220804   -10.01842829     0.27329219     0.00974918     0.35490612
Li     -7.81840914     2.28604991    -5.92891678     0.25004759     0.18019593    -0.07265512
Li     -3.95778996     6.51054849    -1.90751590     0.38249041    -0.09344891    -0.14647411
Li     -3.80937305     6.27181807    -5.96958302    -0.06439448     0.48300251     0.35732054
Li     -7.90103646     6.41771548    -9.85967406     0.53715107     0.29573430    -0.43318231
Li     -7.85539898     6.55687052    -5.85570511     0.12001288    -0.01333662     0.10868382
Ti     -1.98177747     2.26034088    -4.01100278     0.96479264    -1.09816940     0.43535184
Ti     -5.88377480     6.65070076    -7.88473806     1.35373083    -0.27421201    -0.09858212
Ti     -8.00966136     4.56311970    -7.76726321     1.20306878    -2.24942049    -0.36795266
Ti     -8.03944872     4.43628702    -3.72659265     0.42861167    -0.70950643    -0.31186371
Ti     -4.00100949     4.39281302    -7.69483698     1.09169720    -0.89816415    -2.32711710
Ti     -4.06071676     4.40360847    -3.71492213    -0.22199697    -0.02302240    -0.20492930
Ti     -5.96839565     8.62571641    -2.16989591    -0.89625894     0.82375681    -0.93956353
Ni     -5.84383745     2.33795898    -7.98975621     0.01822518     1.85972362    -0.33089775
Ni     -5.79942826     2.18914725    -4.08472842    -0.91816146    -0.13456719     0.86514525
Ni     -9.81012554     6.55206535    -7.80073169    -0.45728759     0.43185520     0.13263658
Ni     -9.75991467     6.73550297    -3.88538413    -0.79958980    -0.97867484    -0.46109204
Ni     -1.89462921     1.92753117    -7.94452625    -0.33717148     1.13004656    -0.56824739
Ni     -5.79599178     6.57907316    -4.02075450    -1.37859492    -0.08105815     0.34921766
Ni     -5.85015066     8.74011334    -5.99385190    -0.12185395    -0.59500189     0.27304188
Mo     -9.85431068     8.69714084   -10.07491706    -0.65192075     0.75910190    -0.69322202
Mo     -9.80534103     8.70307489    -6.36627007    -0.64085099     0.50066516     0.14192817
O      -1.86303645     1.85617433    -2.11916293    -0.72799656    -0.00752828     1.38499227
O      -1.98745932     1.79519339    -6.07558488     0.65965782     0.57102063     0.09175280
O      -5.88809804     6.73903061    -2.06343868     0.46631779    -0.46338760    -0.13746739
O      -5.90739772     6.89346075    -5.92465227     0.28157340    -0.43098223     0.01890803
O      -5.69755779     1.90654778   -10.10507366    -0.84382884     0.66922297    -0.05419128
O      -5.81084583     1.98938105    -5.93859345    -0.67825970    -0.31105993    -0.26078580
O      -9.74861472     6.83987075    -9.66373610    -0.19936540    -0.37923773    -0.11920520
O      -9.79214948     6.86822143    -5.83116613    -0.02928881    -0.50100051    -1.43692522
O      -3.91345309     2.39873570    -3.95728599     0.49143010     0.06071341    -0.36090226
O      -3.81961123     2.43707897    -7.96895483    -0.25531649     0.15326201     0.14927283
O      -7.90172159     2.45652841    -3.96885237     0.17184424    -0.44615144    -0.24719800
O      -7.86586159     2.48929794    -7.91179586     0.48559256     0.20255632    -0.94258615
O      -3.93746680     6.29000939    -4.08012431     0.68561777     0.68166552     0.66594020
O      -3.90153228     6.35723707    -7.96906463    -0.70560649     0.72830107     1.06967528
O      -7.91645628     6.35677541    -3.96527654     1.56096197     0.42992061     0.35364611
O      -7.78957441     6.48416599    -7.92626214    -1.21061226    -0.13729458     0.27869863
O      -3.82481559     4.55286945    -1.97471842    -0.21237203    -0.79772694     0.07529948
O      -3.80859356     4.35946375    -5.99656185     0.09095414     0.02349933     2.35233327
O      -7.74328920     4.34820462    -9.91151685    -0.66629754     0.48661563    -0.09421537
O      -7.79592222     4.42140809    -6.05119131     0.24398539     0.34087891     1.23382455
O      -7.82405382     8.60559322    -2.04001651     0.11237294     0.04664323     0.22338022
O      -4.13303824     0.06062580    -6.10622905     1.29389104    -0.51431397     0.24633593
O     -11.63329415     8.70326941    -6.06830633     0.31865708     0.11129343    -0.18353632
O     -11.67103162     8.72425504    -9.94385923     1.62439818    -0.01529041    -0.23636473
O      -2.01542691     4.18829888    -3.84080142    -0.21934354     0.05879370    -0.96071400
O      -9.85330933     4.75895570    -3.96160179     0.80750468     0.18239076     0.16973103
O      -5.87493694     4.14439361    -3.99618431    -0.86239434    -0.01071898    -0.18507040
O      -5.85022212     4.45031253    -8.02106780    -0.83700713    -0.08503301     0.41310309
O      -1.92986842     0.23981734    -4.10445326    -0.24460972    -0.01539899     0.85853406
O      -5.70623950     8.42493612    -8.04099921    -0.51722013     1.13047599    -0.04975441
O      -5.81465449     0.02595388    -3.98563042    -0.28894283     0.11080708    -0.02996865
O      -5.78745956     0.59573071    -8.16861853    -0.36806216    -1.31410990     0.58367349
