# total energy = -631.01798285 eV

CRYSTAL
PRIMVEC
        0.00285542     0.02004370    -7.95977623
       -7.82940539     0.00763210    -3.98158109
       -3.91729101     8.74642787     0.01461334
PRIMCOORD
56 1
Li     -4.07744573     2.21329273    -1.73357435     0.90939103     0.14695369    -0.93122572
Li     -3.96899696     2.13567620    -5.93277014    -0.10181327    -0.31308141    -0.35331428
Li     -7.83822818     2.19509659    -9.89851672     0.25706480    -0.18281623    -0.54478942
Li     -7.84175956     2.32228690    -5.89682800     0.36281929     0.05142771     0.13663214
Li     -4.00522702     6.46921083    -1.99809031     0.30165027    -0.29272797     0.21113779
Li     -4.11675468     6.46408110    -5.75020501     0.92001426     0.36060980    -0.37747514
Li     -7.88101778     6.54927121    -9.84629308    -0.19610603    -0.21982818    -0.26636719
Li     -7.79970195     6.37140925    -5.78492403    -0.40339161     0.34666244    -0.10647532
Ti     -2.00358207     2.36799746    -4.03493795    -0.25031282    -2.22808672     0.22905941
Ti     -5.89377175     6.76998379    -7.92083084    -0.77595717     1.43938178    -0.57760036
Ti     -7.78115996     4.35672479    -7.75951963     0.01282945     1.50423919     0.40942559
Ti     -7.80928614     4.37722765    -3.72937287     0.03326543     0.03237528     0.48598162
Ti     -3.95316125     4.32479483    -7.65548698     0.56894175     0.55927734    -1.65384489
Ti     -3.96298484     4.41136057    -3.83118455    -0.42478653     1.40319702     2.02592829
Ti     -1.75489656     0.00974563    -2.20922430    -0.76492245    -1.38780986    -0.08731730
Ni     -5.90180385     2.29271948    -8.04094895     0.09695964     0.64865469     0.69035314
Ni     -5.81280535     2.30910302    -3.98412891    -1.41400490    -0.73329311    -0.85903654
Ni     -9.73996479     6.45699269    -7.85808033    -1.24709635     0.63393518     0.42983102
Ni     -9.92957097     6.29849955    -3.87980483     0.99671815     0.97326091    -0.14236483
Ni     -1.92804547     2.18268242    -7.85178327     0.40178598     0.35738291    -0.78398662
Ni     -5.93696482     6.69971325    -3.98705789    -0.16329760    -0.24211728     0.61017111
Ni     -5.80785410     8.74073243    -5.95954373    -0.52715836    -0.95461921    -0.55272989
Mo     -9.79295866     8.69850652   -10.20013907    -2.17472151    -0.16654565    -0.31429910
Mo     -9.78368184     8.68249102    -6.29040390     1.18698282    -0.40274824     0.71572148
O      -1.90048940     1.83964658    -2.01781955    -0.79309400     1.63582415    -0.22002699
O      -1.96975151     1.77358503    -5.92864518     0.38333840     1.34478531    -0.15541594
O      -6.02127035     6.84682938    -2.00294015     1.11867173     0.00507272     0.00100497
O      -5.92122990     6.83527366    -5.96930255    -0.12315037     0.58273464     0.83718717
O      -5.88851003     2.02728670    -9.97895103     0.01110056     0.04959957     0.08739627
O      -5.87179118     1.96286186    -5.98929852    -0.68650478     0.48851962    -0.22061679
O      -9.90011539     6.83750139    -9.77538895     0.33906680    -0.00717693    -0.46527796
O      -9.78080469     6.78435461    -5.90374874    -0.13809161     0.49129304    -0.22410204
O      -3.95581519     2.39506802    -4.05516475     1.47820987     0.16612679     0.64978251
O      -3.78643883     2.45223785    -7.88841996    -0.80201465    -0.62203327     0.07386963
O      -7.84965854     2.48074097    -3.98441204     0.03144665    -0.89185455     0.29936327
O      -7.83699981     2.46238339    -8.00539003    -0.70940961    -0.65612596     0.41556958
O      -3.89669433     6.46293877    -3.87819576     0.11217854    -1.06097220    -0.42195612
O      -4.04512917     6.36316938    -7.92924554     0.29607889    -0.27699944    -0.08257463
O      -7.89238829     6.27539015    -3.79272216    -0.27412244     1.60515271    -1.59821475
O      -7.83978618     6.41504683    -7.90914135     0.51007159    -0.49664987     0.11829678
O      -3.79279726     4.48380328    -2.04581529    -0.44394158    -0.48014989    -0.73746134
O      -3.96212465     4.50194172    -5.93484258     0.27199656     0.08068495     0.68307314
O      -7.89198073     4.53508588    -9.92465563     0.01315739    -0.75365595     0.38929179
O      -7.95716407     4.52564543    -5.97989598     0.26294546    -0.74739034    -0.81743804
O      -8.02689946     8.62025550    -2.17479333     0.74935945     0.61499956     0.72462571
O      -4.12401441     0.06193377    -6.02627962     0.66326838    -0.46444677    -0.12306438
O     -11.66611391     8.68439057    -6.02049907    -0.05158217     0.00091032     0.25820746
O      -3.89612006     8.69845468    -6.05502504     1.10808020     0.34463855    -0.03584645
O      -1.95517234     4.18427995    -4.16640578    -0.18395227     0.26775034     0.20930475
O      -9.81578849     4.46009975    -4.05052170    -0.34441395    -1.00974416     0.58365456
O      -5.81159652     4.23780409    -4.08850017    -1.45948100    -0.02069269     0.36995687
O      -5.92571719     4.28217898    -8.05209147     1.28869130    -0.04136311     0.26317710
O      -1.86209174     0.15680543    -4.06214141    -0.34244029     0.33415181     0.77716144
O      -5.92991742     8.63995331    -8.02674851     0.03233131    -0.87616275     0.30855651
O      -5.91488354     0.40341529    -4.04756298    -0.21454320    -0.38310149     0.04141579
O      -5.97468419     0.49113090    -8.06938082     0.41100392    -0.55828847    -0.55354862
