# total energy = -630.79161024 eV

CRYSTAL
PRIMVEC
        0.00279571     0.02951795    -7.98606283
       -7.83802570     0.01298533    -3.99532603
       -3.92160916     8.71933433     0.00634407
PRIMCOORD
56 1
Li     -4.05153186     2.01259541    -1.97301544     0.76007470     0.56283110     0.42850116
Li     -4.08334820     2.25185016    -5.81830130     0.38627298     0.23924576    -1.16397134
Li     -7.88246456     2.11363278    -9.87962926    -0.26103558     0.38013496    -0.45069160
Li     -7.79809755     2.42509495    -5.86361060    -0.24158769    -0.48326735     0.07469226
Li     -3.93302243     6.30245850    -1.98092718     0.00628630     0.39866225    -0.40783298
Li     -3.99077687     6.35378542    -5.92689875     0.53921415     0.21188936     0.22812103
Li     -8.09418345     6.46793586   -10.01368046     0.95258953     0.15333891     0.39533708
Li     -7.85907308     6.28422392    -5.91792325    -0.01043384     0.09581309    -0.08170291
Ti     -2.07196940     2.13052515    -3.94313319     0.34255546    -0.58047706    -0.33846079
Ti     -5.82938726     6.43578231    -7.98401791    -1.40652935     0.69770139    -0.59382929
Ti     -7.90943420     4.32239959    -7.79180236    -0.60146031    -0.05526166    -1.33604879
Ti     -7.71647310     4.40968727    -3.69132042    -1.30581205    -1.18411959     0.04764480
Ti     -3.76611654     4.33717288    -7.79124364     0.57270089    -1.51592028     0.06484110
Ti     -4.00836750     4.39823397    -3.76441010     0.70410881    -0.91166664    -1.18752881
Ti     -1.77898828     0.02523620    -1.94396196     0.49708370    -1.22426063     0.00306490
Ni     -5.86845915     2.35128011    -8.03276553    -0.49459953    -0.46595323     0.55662546
Ni     -5.91169235     2.14599192    -3.86817719    -1.16470159     0.32446218    -1.73623196
Ni     -9.71506303     6.99893018    -7.99767282    -1.05236608    -1.39800815    -0.13048349
Ni     -9.87388451     6.47759073    -4.05863004     0.66219609     0.03656577    -0.02434271
Ni     -2.05374172     2.09433860    -7.95966750     1.14858341     0.00043533     0.47390197
Ni     -5.94462926     6.57819291    -4.02459807     0.87884764    -0.14123051     0.62016726
Ni     -5.87924422     8.73886952    -5.96543029     0.07560091    -0.43665666    -0.67495311
Mo     -5.95410178     0.14358452   -10.35623832    -1.12288567    -1.55794619     0.11361533
Mo     -9.69251905     8.72820144    -6.29033000    -1.66412394     0.88427611     1.38909073
O      -1.96089454     1.96609970    -1.90382607    -0.59439495    -0.37346392    -0.36071676
O      -2.06923333     1.84284683    -6.06511537     0.32113276    -0.01184942     0.37192098
O      -5.89394072     6.77544480    -2.04488061    -0.22037858     0.23477967     0.09107649
O      -5.86106139     6.85714175    -5.96482806    -0.36717749    -0.04926306     0.14545097
O      -5.89578906     1.98467422   -10.03776530    -0.45066432     1.69150203     0.77745438
O      -5.97106829     1.88896297    -5.77773745     0.09084536    -0.04284016    -0.00957500
O      -9.87515450     6.95958700    -9.78864693    -0.12639351    -0.33513084    -1.00285693
O      -9.85431441     6.82447563    -6.16549456     0.74790415    -0.21986317     0.67346546
O      -4.02058273     2.35309109    -4.02072266     0.08148559    -0.09984908     1.14535812
O      -3.89670631     2.31951338    -7.92498977    -0.92595634     1.16735629    -0.43801953
O      -7.92899426     2.41622675    -3.88999156     0.35037237     0.31617739    -0.17998739
O      -7.89900140     2.38120110    -7.96626297     0.95955116     0.07070577    -0.04318101
O      -3.91775472     6.23684722    -4.00126914    -0.39880661     1.94921411    -0.02081933
O      -3.95990395     6.31366124    -8.03277269     1.14325046    -0.05691053     0.28552650
O      -7.86241574     6.38693867    -3.95437546    -0.23058018    -0.32348341    -0.32321774
O      -7.79935516     6.28887374    -8.05237502    -0.71345851    -0.01706290     0.64794069
O      -3.92418775     4.33608203    -2.03931336     0.18085666    -0.22720274     1.26114824
O      -3.77757706     4.35167416    -6.04569273    -0.36093485     0.04597135     0.27540577
O      -7.53951869     4.34456650    -9.93828006    -0.93351338     0.21996854     0.11479474
O      -7.93742599     4.26636933    -6.06055301     0.56817145     0.91727335     0.79510131
O      -4.19160551     0.12624312    -9.95189365     0.46676010    -0.29083915    -0.47579350
O      -4.06789643     0.10572657    -6.11704144     1.70740029    -0.62571723     0.30101007
O      -3.92835031     8.69997220    -2.13853148     0.05913563    -0.05973534     0.60763161
O      -7.83893010     0.18196461   -10.06145637     0.93981483    -0.43221378     0.04595978
O      -2.00761571     3.95034083    -4.13932266     0.10498933     1.63096867     0.24556013
O      -9.69549272     4.59551913    -4.08387362    -0.51719005     0.37738891     0.30816031
O      -5.87874118     4.45843599    -4.10873264     0.08121269     0.06951841    -0.37653178
O      -5.79205857     4.39284479    -7.98210278    -0.53239408    -0.13504460     0.32360595
O      -2.06652432     0.23282349    -3.96288491    -0.13844849    -0.66211619     0.03570543
O      -5.89526578     8.32353051    -7.97919014     0.02547350     0.91906907    -0.49632523
O      -9.93071541     8.35106570    -4.14332177     0.24000698    -0.46678221    -0.20858895
O      -6.00740167     0.42266065    -8.04526684     0.11276827     0.89416668    -0.65873822
