# total energy = -630.80539270 eV

CRYSTAL
PRIMVEC
        0.00279571     0.02951795    -7.98606283
       -7.83802570     0.01298533    -3.99532603
       -3.92160916     8.71933433     0.00634407
PRIMCOORD
56 1
Li     -3.93856239     2.30937267    -1.95747052    -0.15167332    -0.22564654     0.01968956
Li     -3.89021485     2.25937035    -6.04479071    -0.22743771     0.04554446     0.40441188
Li     -7.84338643     2.24916509    -9.87267680     0.10767331     0.11264688    -0.62839787
Li     -7.96140290     2.12024845    -5.72225336     0.53570720     0.06117208    -0.98663137
Li     -3.71395959     6.80651962    -2.11890308    -0.73476986    -0.26934626     0.45779005
Li     -4.14076173     6.22857365    -5.89347393     0.89751803     0.31039130     0.25861340
Li     -7.98838856     6.55981017    -9.99017362     0.41025785    -0.07875569     0.40043740
Li     -7.77312310     6.60035410    -6.04066155    -0.74435665    -0.36272410     0.36056155
Ti     -1.94456529     2.27289000    -4.03301325    -1.07389575    -0.61725371     0.43561794
Ti     -5.76465441     6.67051775    -7.87597144    -1.25091720     0.05757815    -1.70283284
Ti     -7.69697623     4.34325966    -7.77968131    -0.26735581     1.18209789    -0.58648758
Ti     -7.79053748     4.37886987    -3.74180099    -0.36089243     1.03254113    -0.14642203
Ti     -3.85672471     4.36861500    -7.82818334     1.21438732    -0.57905258     0.15371135
Ti     -3.99406910     4.42842173    -3.67718024    -0.01848539    -1.29844112    -1.64496662
Ti     -2.15675529     0.02587646    -1.98296097    -1.24980146    -0.03527587    -0.76775688
Ni     -5.79744852     2.12179287    -7.93840979     0.02217599     0.13220464     0.75096033
Ni     -5.98872932     2.23893865    -4.00639037     0.77567017    -0.03402516    -0.24768995
Ni     -9.77919364     6.31644290    -8.06623081    -0.16434135     0.26138501    -0.29664333
Ni     -9.77875410     6.69781933    -4.03529787     0.40321741    -0.50576261     0.78040083
Ni     -1.96111793     2.15460291    -7.96684427    -0.34946170     0.55506165     0.09169685
Ni     -5.93269791     6.53687139    -3.90613278     0.45233054     0.81365687    -0.03183971
Ni     -2.06026339     0.03179437    -5.91303635     0.30269051     0.60455276    -0.31722100
Mo     -9.95059111     8.75128477   -10.30502930     0.77878011    -0.75900389     0.50946057
Mo     -5.83202561     0.07972599    -6.39621121    -0.19890480    -0.15623876    -1.96402743
O      -2.03298593     1.95972774    -2.05246508     0.93104026     0.16391420     0.85869944
O      -1.96131370     1.87543073    -5.99512849     0.17689332    -0.05747963     0.53309350
O      -5.73259428     6.89889536    -1.92959123    -0.47072225    -0.58330747    -0.77881947
O      -5.96525651     6.93778945    -5.94619304     0.34221597    -0.71891802     0.70408791
O      -5.87310646     1.84201963    -9.74210764    -0.17316866     0.26408733    -0.63318504
O      -5.89452825     1.96541040    -6.04295233    -0.12929595     0.85270223     0.00920960
O      -9.90149066     6.81740258   -10.14756717     0.48793931    -0.76344054    -0.30306591
O      -9.64407058     6.95714781    -5.83427912    -0.64268315    -1.02768297    -0.34933864
O      -3.86692074     2.46554806    -3.95925349    -0.27202435    -0.41904896    -0.44579898
O      -3.84504901     2.32527349    -7.98363700    -1.06872226     0.95926653    -0.21264249
O      -7.98339412     2.43700953    -3.90361939     1.59264399    -0.72890558    -0.02398786
O      -7.77196909     2.40965793    -8.00052669    -0.30322421    -0.17293905     0.19814972
O      -3.96889715     6.26620207    -3.96755243     0.22404007     0.84243185    -0.42805877
O      -3.90117182     6.36059167    -7.99788949     0.89455156     0.31250385     0.24717321
O      -7.78624190     6.45631061    -3.86605424    -0.54145483    -0.93590580    -0.75494972
O      -7.89242125     6.36567834    -8.05858366     0.52932970    -0.43023715     0.51638010
O      -4.09038984     4.30616777    -1.98636344     0.26519310    -0.21927050     2.55580138
O      -3.91002428     4.28116927    -6.06298794    -0.20349875     0.30114529    -0.38750244
O      -7.76031482     4.50296149    -9.98546464    -0.37927061    -0.35909742     0.80998986
O      -7.84011232     4.47864463    -6.07412984     0.25303975     0.11402712     1.38124578
O      -7.93959437     8.70573900    -2.04956158     0.33643816    -0.20224193     0.18947929
O      -4.04823919     0.19511486    -6.18936752     1.39491617    -0.32194900     0.48020359
O      -7.62582597     0.03434456    -6.15270461    -1.29585998     0.45470044     0.23163886
O     -11.66360949     8.64341267   -10.05937219    -1.37433478     0.82403568     0.32257115
O      -1.97372535     4.31892380    -3.94344655     0.16744653    -0.15594824    -0.46375482
O      -9.67250263     4.26037031    -4.11292209    -2.31150617     0.00685787     0.16735215
O      -5.90258550     4.12374250    -3.98290522     0.10106477    -0.04999955    -0.65647366
O      -5.85248149     4.75377679    -7.97076800     0.95442058    -0.37099102     0.07409153
O      -2.10820273     0.29995392    -3.91992382     0.75920780     0.29447434    -0.80600019
O      -5.79399837     8.58387115    -7.94555708    -0.12614389     0.59110704    -0.30029884
O      -5.98685775     0.30191543    -4.14502514     0.51458461     0.44796964     0.42737338
O      -9.82548656     8.14562176    -8.20924762     0.25890996     0.40221881     1.54694642
