# total energy = -630.36188116 eV

CRYSTAL
PRIMVEC
        0.00279571     0.02951795    -7.98606283
       -7.83802570     0.01298533    -3.99532603
       -3.92160916     8.71933433     0.00634407
PRIMCOORD
56 1
Li     -3.81721943     2.35665767    -1.96550084    -0.30968395    -0.09560410     0.26499609
Li     -3.83347873     2.11273223    -6.00360403    -0.39235951    -0.10009502     0.08933516
Li     -7.85857223     2.08326756   -10.01098714     0.09183112     0.62927771     0.18553864
Li     -7.64047575     2.09785326    -5.95481454    -1.09563926     0.32746380     0.25885508
Li     -3.86923136     6.26066639    -2.02941340    -0.24453471     0.05471184     0.29415382
Li     -3.85219604     6.59412055    -5.66392574    -0.44460067    -0.02177362    -1.56377147
Li     -7.97079681     6.34193070    -9.98919896     0.24319993     0.80615431     0.59546420
Li     -7.85967389     6.63042120    -6.03198104    -0.04977048    -0.18094768     0.57173460
Ti     -2.01766896     1.99202220    -3.93087068     0.15680531     0.68720207    -0.22277758
Ti     -5.88340609     6.48526595    -7.95014922    -0.07364736     0.80309622    -0.27412887
Ti     -7.88753811     4.22610405    -7.75001549    -0.56616702     0.58758577     1.44660966
Ti     -7.87045347     4.41943118    -3.68160771     0.87315828    -0.48074977    -0.43775415
Ti     -3.82933092     4.37593156    -7.68989846    -0.83338036    -0.47123659     1.12683561
Ti     -3.87013154     4.35824648    -3.89116645    -0.54519482     0.87247203     1.58231198
Ti     -6.17598431     8.67696577    -1.87420926     0.25392170     0.20234568    -0.36666555
Ni     -5.76003565     2.33065462    -8.08639901    -0.40584207     0.52973659     0.26733349
Ni     -5.88995085     2.34522802    -4.05452986     0.34462938    -0.17683261    -0.47805862
Ni     -9.76650295     6.62937620    -7.95982464    -0.20679737    -0.62279358     1.60723617
Ni     -9.79470943     6.47446155    -3.98092516    -1.25767592     1.24637450    -0.80998243
Ni     -1.87545934     2.19354089    -7.95069415     0.21970648    -0.52889592     0.00751192
Ni     -5.88227021     6.64203565    -3.97833193    -0.18838822    -0.53639140     0.09709830
Ni     -1.96829923     0.03219319    -6.01745390    -0.32894263    -1.21384938    -0.26537794
Mo     -6.04084844     0.15784140   -10.28781389     0.63190691    -1.04387394    -1.71267230
Mo     -9.85410494     8.70999601    -6.46546958     1.57828498    -0.25163531     2.11166575
O      -1.84597145     1.87557805    -1.85038359    -0.44205143     0.01395141    -1.05323446
O      -1.82266969     1.89171941    -5.94695277    -1.45256637    -0.48371546    -0.61655259
O      -5.83599266     6.79670255    -2.02198298    -0.26859265    -0.26971639     0.06824587
O      -5.90087853     6.79196846    -6.06210469     0.14729454     1.09957414     1.00996383
O      -5.97068782     2.01449824   -10.23186512     0.92230057     1.18965074     1.46468514
O      -5.84462253     1.89934622    -5.85811765     0.63734560    -0.04764427    -0.85471060
O      -9.79947852     7.12232914    -9.66974397     0.10209000    -1.40366250    -0.94761884
O      -9.85592778     6.83111657    -6.07998287     0.86248859    -0.78210294     0.07940547
O      -3.95414364     2.42765397    -4.00411895     0.22464526    -1.68237664    -0.14600469
O      -3.76598819     2.42999259    -7.95536535    -0.32431358     0.26879787     0.07540060
O      -7.75405453     2.43946775    -4.02778851    -0.80568941     0.82873779     0.54972638
O      -7.91124176     2.32509014    -7.87821246     0.92384130    -0.33287392    -0.71310088
O      -3.78525068     6.35876707    -3.94405616    -0.09637155     0.32412609     0.45657212
O      -3.97035714     6.37994151    -7.92472500     0.44915567    -0.86347107    -0.25587151
O      -7.96324951     6.37741797    -3.90793522     0.97155336    -0.40457184    -0.34235497
O      -7.83469685     6.25178363    -8.00662751     0.09563543     0.49588401     0.38937455
O      -3.85695493     4.20249202    -2.10961952     0.03287616     0.85850539     0.71475474
O      -3.87413343     4.34743284    -5.88181641    -0.12960800     0.04683159    -2.14020541
O      -7.83083414     4.52583796    -9.87571375    -0.09145573    -1.00620657    -1.41362364
O      -7.76571271     4.38354825    -5.96792360    -0.18775908     0.21684448    -1.15879201
O      -4.02673041     0.15945017    -9.94668232    -0.29905667     0.17158288    -0.20396450
O      -7.97407020     8.66871956    -5.96682094    -0.31566145     0.29517713    -0.91726927
O     -11.57572922     8.70539585    -6.09143470    -0.36230313     0.39001261    -0.02989354
O      -7.81317851     0.14883791   -10.07765137    -0.73702794    -0.52791325     0.11621890
O      -1.99459199     4.05266497    -4.06440252     1.89736016    -0.51825897     0.13609065
O      -9.87112850     4.63513195    -3.99821644     2.24868522    -0.10592920    -0.10658982
O      -5.81021156     4.66484880    -3.95570935    -2.00959719     0.49727835    -0.29294262
O      -5.79603608     4.24513826    -8.06650832    -0.41052683     0.71771779     0.21825623
O      -2.13237301     0.09462088    -3.92267363     0.75556889     0.21524074    -0.19117433
O      -5.88141572     8.44283187    -8.03214992    -0.03277097    -0.66825532     0.71356862
O      -9.80155221     8.41049502    -4.04108423    -0.08733354    -0.40488566     0.49900713
O      -5.86057304     0.47277176    -8.23305442     0.08996077     1.57076688     0.48516037
