# total energy = -630.34247279 eV

CRYSTAL
PRIMVEC
        0.00285542     0.02004370    -7.95977623
       -7.82940539     0.00763210    -3.98158109
       -3.91729101     8.74642787     0.01461334
PRIMCOORD
56 1
Li     -4.06233066     2.11028886    -2.01384134     1.03167351     0.62765698    -0.09950001
Li     -3.83807813     2.22156394    -6.03094577    -0.65014833    -0.06108409     0.02141024
Li     -7.88286660     2.45335799    -9.96566033     0.44482677    -1.01352761    -0.01280571
Li     -7.93555293     2.39691759    -5.85242463     0.41123442    -0.39141673    -0.36835175
Li     -3.91506052     6.66440616    -1.93280737    -0.47783223    -0.34144191     0.14483732
Li     -3.85414596     6.99186322    -5.78083862    -0.31628158    -0.42511656    -0.08933745
Li     -7.95831609     6.77776923    -9.81002519     0.51867015    -0.38482692    -0.23270088
Li     -7.81863632     6.41798578    -5.88204318     0.00506295     0.14587005     0.62384354
Ti     -1.95280103     2.28841252    -4.01670966    -1.69538490    -1.67332225    -0.77072287
Ti     -5.93262497     6.76675344    -7.82826980     0.77145721     0.19916798    -0.00328219
Ti     -7.90912911     4.40125378    -7.76254122     0.65355604     0.09670564    -0.80764347
Ti     -7.77530861     4.36840131    -3.74006958     0.27718965    -0.02827840    -0.51541075
Ti     -4.05306472     4.33839392    -7.79826510     0.21346204    -0.24434352     0.04792850
Ti     -3.97858926     4.47085767    -3.89698499    -0.78589080    -1.44591702     0.05886725
Ti     -1.86316395     0.03735996    -2.08725308     0.30211689    -0.55214543    -1.55316340
Ni     -5.88137299     2.34282275    -7.93628806    -0.09961533    -0.32069595    -0.80613736
Ni     -5.91191529     2.15417273    -4.07116333     1.14374593     1.45979162    -0.25613997
Ni     -9.88092203     6.48858323    -7.69541878     0.83765624     0.66342458    -0.87795081
Ni     -9.85976763     6.15106775    -4.00778547     0.10504378     0.39482741     0.51392691
Ni     -2.03587838     2.33688982    -7.92654785     1.54200064    -0.50321114     0.04507355
Ni     -5.91879987     6.55868290    -3.86853689    -0.20262112     0.73601493    -0.40936490
Ni     -1.88720577     0.04095122    -5.94502381    -0.41256535    -0.50095635     0.37252245
Mo     -5.76280825     0.08289280   -10.24646806    -1.80211431     0.63888762     0.82472621
Mo     -9.72936399     8.68666750    -6.30785149     0.66759473     1.19303078     0.97245228
O      -2.05789462     1.87829450    -2.12251427     0.39449479     1.32656323     1.01914674
O      -1.99359598     1.88802589    -6.01172605     0.87502163    -0.42788138    -0.18339115
O      -5.95499391     6.79004304    -1.98120121     0.25816594     0.16069272     0.83139152
O      -5.86207246     6.89222255    -5.73982910    -0.10908286     0.09202939    -1.44804908
O      -5.87017560     2.01687222    -9.92887073    -0.34199301     0.88875186    -0.41990226
O      -5.86316116     1.95592381    -5.99772933    -0.37005066    -0.31940809     0.02070577
O      -9.80581881     7.06767035    -9.66407515     0.73104599    -1.44324295     0.44742572
O      -9.83609053     6.79559171    -5.76452946    -0.18004837     0.36855384    -1.22727343
O      -3.91487978     2.29434288    -4.12887819     0.12717874     0.81717239     0.96207825
O      -3.82913712     2.38723418    -8.06686427    -1.71537534     0.28017477     0.27954840
O      -7.83702344     2.38686818    -3.99880354    -0.73573766     0.38918801     0.14931249
O      -7.86181222     2.39459328    -7.88329598    -0.04650268     0.41128609    -0.42938920
O      -3.92392290     6.38960607    -3.93545360    -0.14475371     0.16952895     0.24081203
O      -4.02589613     6.31288373    -7.81783395     0.23925302     0.06536935    -0.73817032
O      -7.93993225     6.34156872    -3.89335826     0.10033719    -0.76431535    -0.20968269
O      -7.79974561     6.41556870    -7.82909656    -0.87678482    -0.63234489    -0.13470216
O      -3.71448003     4.32976430    -2.15963567    -0.50488594     0.01551365     0.12567681
O      -4.02311405     4.18780246    -6.07671284     0.72196095     0.29233841     0.77543280
O      -7.74067311     4.29460113    -9.96126039    -0.11706494     0.52817350     0.30513693
O      -7.93699603     4.36122459    -6.02968131    -0.33274361     0.33655742     1.06733208
O      -3.96684141     0.15342154    -9.94296016     1.17274515    -0.90767637     0.09770767
O      -7.96951202     8.74030232    -6.06448574    -0.91172650    -0.45149994    -0.16514505
O      -7.81217125     0.11112265    -5.98661871     0.54411578    -1.09395169     0.02657931
O      -7.55539735     0.08141667   -10.11821689    -1.76915696     0.29556812     0.33632198
O      -1.94375624     4.15525474    -4.32731550    -0.51165545     0.81658887     0.69463734
O      -2.01634364     4.22708448    -7.99972662     0.83277465     0.69226264     0.06711119
O      -5.84507348     4.04576984    -4.19981906    -0.75393439     0.41937872     0.83236777
O      -5.99086149     4.23969125    -7.95516168     0.80177869     0.62701204    -0.42283501
O      -1.93078662     0.20261750    -4.05542014     0.17778223     0.42825746     0.89766258
O      -5.94274740     8.56312471    -7.92214537     0.34252979     0.07477935     0.15939010
O      -5.75774125     0.31368621    -4.06700546    -0.16214810    -0.87069229    -1.60169878
O      -5.83773479     0.55907762    -8.06100688    -0.31903444    -1.34065689     0.72911470
