# total energy = -630.64826696 eV

CRYSTAL
PRIMVEC
        0.00279571     0.02951795    -7.98606283
       -7.83802570     0.01298533    -3.99532603
       -3.92160916     8.71933433     0.00634407
PRIMCOORD
56 1
Li     -4.02874391     2.34331257    -1.85698853     0.42909706     0.21618951    -0.37238164
Li     -3.87455974     2.23037185    -5.96408003    -0.32528476     0.21938087     0.18754996
Li     -7.85071578     2.21379761    -9.83078260     0.23516148    -0.08775287    -0.74306871
Li     -7.88323094     2.19080347    -6.03350021     0.34046097     0.07472234     0.81897389
Li     -4.00792021     6.70065121    -2.10419802     0.66896122     0.11038070     0.65773269
Li     -3.88228759     6.42554299    -5.86877968    -0.25879647     0.00396743    -0.23538953
Li     -7.99582520     6.54766568    -9.90053531     0.89599344    -0.11128023    -0.06429737
Li     -7.90351432     6.42790816    -6.03791177    -0.10719255     0.16618655     0.87193927
Ti     -1.95637257     2.30399292    -3.94667390    -0.05660667     0.47877508    -0.80733912
Ti     -5.81025082     6.71098673    -7.95775531     0.57794136     0.63375624     0.56323576
Ti     -7.64537546     4.38514333    -7.78782416    -0.41999787     0.39067830     1.12297640
Ti     -7.90332497     4.31878587    -3.67633111     1.10683660    -0.12956359    -1.39123504
Ti     -3.71840896     4.44567821    -7.75100153    -1.44127753     0.28825189     0.77623373
Ti     -4.01877080     4.46296815    -3.69929945     0.00289687    -1.55277181    -0.03456313
Ti     -2.24160526     0.01851797    -2.17614813    -0.15212921     0.98582387    -0.13635762
Ni     -5.84843474     2.20141895    -7.83955412     0.57467276     0.15377855    -1.72224990
Ni     -5.89805621     2.24854565    -3.98802305     0.08050777     1.33996665    -0.02501193
Ni     -9.82828046     6.33821652    -7.98847645     0.05605008    -0.17469770    -0.21889521
Ni     -9.71634533     6.71029936    -4.00540391    -0.86434526    -0.30627153    -0.08306812
Ni     -1.98156244     2.19390872    -7.85836803     0.31129761    -0.42007943    -0.95238595
Ni     -5.83839693     6.43362354    -4.02850916    -1.97513510     0.70603300    -0.08578332
Ni     -5.95781980     8.71916975    -5.99910800     0.25260058     2.02527622     0.32240378
Mo     -9.94910766     8.67692485   -10.29962906    -1.62023462     0.07045806     1.17512619
Mo     -5.85190453     0.08992453    -6.49875172    -0.11837427    -0.54614953     1.54526005
O      -1.93173000     2.05633229    -2.10792510    -0.30921918    -1.70541817     1.40122726
O      -1.99374157     1.86812849    -5.96923874    -0.15117121    -0.30309790    -0.65100961
O      -5.91344459     6.90052772    -2.10086887     0.38219166    -0.95643603     0.57183105
O      -5.84931697     6.92242540    -5.96163543    -0.48570466    -0.87866099    -0.45469616
O      -5.80574397     1.91809590    -9.81726794    -0.94522454    -1.14376468     0.17208381
O      -5.85709837     1.99567888    -5.98463050     0.10116259    -0.09739985    -0.24383760
O      -9.78536910     6.63152809   -10.10384923    -0.55399575     1.56844204    -0.54953412
O      -9.90197755     6.84884978    -5.88281072     0.90277430    -0.11432700    -0.27069301
O      -3.81858354     2.50283437    -3.90249155    -1.58897038    -0.42213261    -0.38911725
O      -3.91995818     2.43830970    -7.98856752    -0.43528890     0.11770143     0.76484310
O      -7.92831161     2.36141446    -3.91825211     0.73561599    -0.26867597    -0.47817198
O      -7.80035942     2.38652016    -7.98290929     0.81143310     0.51291161     0.70243122
O      -3.99341843     6.35858409    -3.96937921     1.20411793    -0.18316174    -0.23999005
O      -3.82300421     6.56845530    -7.85883987    -0.45252639    -1.08767197    -0.78382201
O      -7.79724283     6.23223520    -3.93600591    -0.03873621     0.72010087    -0.32269290
O      -7.93669091     6.39594410    -7.91211520     1.09957679    -1.00286911    -0.86181194
O      -4.09197633     4.38449923    -1.94453139     0.43710591     0.28511944     0.20178866
O      -3.99160042     4.28933987    -5.97502128     0.36536353     0.61971666    -1.04445712
O      -7.87671418     4.22125717    -9.94247005    -0.04803864     0.62484804     1.78292398
O      -7.80989460     4.43188327    -6.01385953     0.20508572    -0.50675908    -1.33801075
O      -7.95878187     8.64148831    -9.94053631     0.19483015     0.34585910    -0.70858019
O      -8.01283830     8.66883938    -5.98749227     0.03768581     0.37304923    -0.57812929
O      -7.58939396     0.07900680    -6.01739762    -0.56774326     0.08433069    -0.50750699
O      -7.85754860     0.09696179   -10.04516317     2.45437150    -0.61441667    -0.44143440
O      -1.92640337     4.25922296    -4.04689143    -0.30409984     1.52135571     0.41457254
O      -1.93848934     4.08030454    -0.13070753     0.14148543     0.13796125     0.35904402
O      -5.94046174     4.16857120    -3.96470728     0.17858132    -0.21491585    -0.20813710
O      -5.74935962     4.81625401    -8.00185450    -0.92581200    -0.19389044    -0.03920353
O      -1.99892491     0.35987564    -4.08481776    -0.11451011    -0.92647323     1.20380101
O      -5.86178893     8.65304978    -8.07265265    -0.14812512    -0.16283371     0.21400301
O      -5.78937620     0.43201705    -4.03549605    -0.23621143    -0.54634279     0.20529777
O      -9.82192607     8.15915532    -8.25085761    -0.13977308     0.49182257     1.09765654
