# total energy = -630.45798621 eV

CRYSTAL
PRIMVEC
        0.00279571     0.02951795    -7.98606283
       -7.83802570     0.01298533    -3.99532603
       -3.92160916     8.71933433     0.00634407
PRIMCOORD
56 1
Li     -3.96677355     1.96474120    -1.90088851     0.08470842     0.22456783     0.23465754
Li     -3.98485838     2.10588058    -5.88964827     0.44233910     0.42018250    -0.30958200
Li     -7.65321689     2.46269870    -9.96799726    -0.05835578    -0.28786640     0.04820869
Li     -7.77860856     2.34034565    -5.78281025    -0.45511405    -0.21818767    -0.93055862
Li     -3.82708866     6.61919845    -1.99871400    -0.45963701     0.08700616     0.12539103
Li     -3.99471328     6.28560934    -5.86895144     0.24368669     0.11547666     0.06174207
Li     -7.76702831     6.25489262    -9.96082187    -0.19969246     0.46287264    -0.02149764
Li     -7.77059854     6.45958417    -5.91704605    -0.51200217     0.19706127    -0.37150284
Ti     -1.90930094     2.29339026    -3.99363790    -0.33060884    -0.20523567     0.22637414
Ti     -5.77614378     6.73465691    -7.82668079     0.33109593    -0.62801306    -1.85525743
Ti     -7.76421295     4.43688379    -7.71295602     0.30909688     0.98347043    -0.49218828
Ti     -7.92022950     4.31503035    -3.83012013     0.58143395     1.13588443     0.93211799
Ti     -3.77230636     4.39474791    -7.74475200    -0.50271645    -0.30935108    -1.79094629
Ti     -4.13096339     4.38797960    -3.54461423     0.39746938     1.04657042    -1.23299752
Ti     -6.20746896     8.64032604    -2.10713681     0.57640962     2.24038263    -0.74827088
Ni     -5.82903128     2.25701304    -7.85383052     0.04236026    -0.36408838    -0.73619185
Ni     -5.85820825     2.20095245    -4.11651440     0.66732088     0.80702380     2.03598734
Ni     -9.78027744     6.37316055    -8.02159287    -1.03019039    -0.11440747    -0.11586371
Ni     -9.65321052     6.52702067    -4.13633520    -1.61604245     0.80886577     2.05197397
Ni     -1.94346415     2.05615462    -7.98614788     0.22077891    -1.79563321    -0.06002190
Ni     -5.90145338     6.72493828    -4.06345640    -0.19204342    -0.44185469     0.64984144
Ni     -1.97616183     0.12193428    -5.97939886    -0.75260454     0.96983353    -0.70285864
Mo    -10.01565562     8.62576206   -10.28040105     0.76067026     0.38199715     0.58306590
Mo     -5.91657114     0.06871186    -6.35877363     0.91735317     0.07923893    -0.60171538
O      -1.89891731     1.91877826    -2.00945041    -0.25285825    -0.59090501    -0.05268276
O      -2.04049021     1.98721980    -6.01852130     0.54043387    -0.68447100     0.25535415
O      -5.95008852     6.88826538    -2.01834843     1.01192633    -2.26905953    -0.76688133
O      -5.93487826     6.98706882    -5.97908212     0.46720275    -0.05032354     1.05827991
O      -5.80058966     1.76968016    -9.79105494    -0.26430137     0.35524779     0.88975956
O      -5.87190726     2.01292181    -5.97424880    -0.32852519     0.04329089    -0.97338547
O      -9.89769262     6.74954432   -10.06027927     0.47687311    -0.50192068    -0.73138880
O      -9.76329616     6.87105842    -5.90171716     0.55508623    -0.58270473    -0.51116886
O      -3.85974154     2.51663225    -3.75721319    -0.24461593    -0.77175747    -1.01955414
O      -3.95708216     2.43087042    -7.92298947    -0.93626568    -0.06072654    -0.39655725
O      -7.67429484     2.40775318    -3.98608076    -0.81277387    -1.23073478     0.23478547
O      -7.85222068     2.53925380    -7.97367628     1.17243220    -0.83199877    -0.00469874
O      -4.01762823     6.39281360    -4.00182436     0.54953751    -1.06448820     0.29370904
O      -3.87614219     6.55607625    -7.93193021     0.46544120    -0.79654014     0.14472946
O      -7.79685467     6.30317373    -4.09072963     0.09796033    -0.29020046     0.79262601
O      -7.88170255     6.36789556    -7.97063137     0.37622848    -0.16258456     0.09052271
O      -3.92607355     4.66301511    -1.84970310     0.14035154    -0.22795190     0.41504801
O      -4.00428803     4.38637108    -6.05260666     0.18408636     0.37287145     1.66859636
O      -7.66527405     4.38769846   -10.02015504    -0.64723495     0.08059131    -0.31457697
O      -7.71163555     4.40474430    -5.95063036     0.07487246    -0.10078862    -0.05832890
O      -7.98171743     8.54390768    -2.23234050     0.58185582     0.66819769     0.76259912
O      -4.07378758     0.18081489    -6.02864672    -0.04467620    -0.40227079    -0.04181408
O      -7.65822863     0.02432466    -5.96251198     0.05774170     0.30622635    -0.49842023
O      -7.78599412     0.21288215   -10.09880128    -1.31922046    -0.68940899     0.13486778
O      -9.77699981     4.35688006    -7.98544329    -0.21924186     0.57151468     0.06045748
O      -1.89130933     3.78491757    -8.01987405    -0.76683266     2.30350556     0.05394684
O      -5.93210897     4.07436850    -3.97376413     0.92499855    -0.01933307    -0.19712526
O      -5.82443479     4.84059917    -8.03755995    -0.01981875    -0.51204207     0.53796937
O      -1.88600865     0.38324795    -4.14880410    -0.23988740    -0.16888761     1.88316556
O      -5.81043278     8.65784307    -8.11605097    -0.71922367     1.04447846     0.50822125
O      -5.86038803     0.29505527    -4.01186578    -0.05717195     0.34706331    -1.16683084
O      -9.79951061     8.20633955    -8.12467579    -0.04082970     0.21915873     0.03308268
