# total energy = -630.39771630 eV

CRYSTAL
PRIMVEC
        0.00279571     0.02951795    -7.98606283
       -7.83802570     0.01298533    -3.99532603
       -3.92160916     8.71933433     0.00634407
PRIMCOORD
56 1
Li     -4.06310435     2.09762107    -2.00633182    -0.10872254    -0.13928131     0.24187284
Li     -3.97872133     2.29396360    -5.84311569     0.00934138     0.20322573    -1.16756950
Li     -7.68598598     2.30842348    -9.79288259    -0.87466777    -0.27416506    -0.63560719
Li     -7.76097673     2.45242670    -5.98746873    -0.52160125     0.03415942     0.52272951
Li     -3.93917445     6.58111447    -2.00805307     0.14185822     0.01240507     0.39332524
Li     -4.04914732     6.21450807    -6.03121637     0.23027268     0.26010923     0.32431685
Li     -7.94000404     6.49604551    -9.83579575     0.24713042     0.40477215    -0.29493713
Li     -7.92240443     6.60199923    -5.92599470     0.68304124    -0.26587764    -0.03688609
Ti     -2.10315007     2.25232233    -3.97370944     1.76283630    -0.10835077    -0.88084010
Ti     -5.81518904     6.66062471    -8.00575018    -0.36547310    -0.03815647    -0.02284751
Ti     -7.74593250     4.44050568    -7.73779133    -0.38080052     0.71852977    -1.35722739
Ti     -7.84381064     4.37099802    -3.63305819     0.12057539    -0.04230435    -1.03723533
Ti     -3.86916085     4.21156435    -7.94533241     0.05955939     0.69731483     1.81405640
Ti     -4.07165784     4.41021044    -3.80267489     0.06380323     0.19540697     1.22316956
Ti     -1.77462232     0.09509232    -2.08674668    -0.17084877    -0.51657691     0.45137630
Ni     -5.88208582     2.14782461    -8.00277782    -0.35203324    -0.15406985     1.12402567
Ni     -5.87501541     2.25556206    -3.88116991    -1.02818820     0.06931958    -1.04966350
Ni     -9.97657496     6.35591473    -7.84844747     1.11502543     0.05867168    -1.18327120
Ni     -9.65380558     6.50386111    -3.93765435    -2.30753578     0.67828279    -0.16242357
Ni     -1.97775640     2.20861851    -8.02980555     0.49648102    -1.35819698     0.81389086
Ni     -5.94828330     6.62640932    -3.90474953    -0.05284441     0.52163296    -0.89680212
Ni     -1.76579265     0.06057474    -6.05181300    -0.99956066     2.01590854     0.36367620
Mo     -9.85616509     8.53917337   -10.33664898     0.89443233     1.59813489    -0.61922793
Mo     -5.75232569     0.12688316    -6.36636618    -1.73136114     0.71733846     1.75669291
O      -2.21510016     2.03851382    -2.05779691     1.62389238    -0.25418129     0.18818422
O      -1.91772869     1.96185283    -6.01278191     0.16638822    -0.64091058     0.06291499
O      -5.93097953     6.86415394    -2.03804343     0.04600494     0.27758817     0.62498855
O      -5.84982585     6.96986393    -6.00713825    -0.04896738    -0.28025494    -0.01777900
O      -5.91030683     1.89556970    -9.81028473     0.03933467    -0.29524133    -0.78036140
O      -5.98532214     2.02343071    -6.02228719     1.15349436    -0.61900411    -0.80601348
O      -9.95989031     6.67944785   -10.02221357     0.78486441    -0.05662910    -0.19140374
O      -9.75445117     6.97547160    -5.78551192    -0.43669635    -0.88727619    -0.11594808
O      -3.95046722     2.42676202    -4.01798940    -0.67621589    -0.29124190     0.30302400
O      -4.04369191     2.29685036    -8.05776362     0.33336849     0.79554463     0.50274588
O      -7.73481719     2.40793280    -4.00777835    -0.84718835     0.72855696     0.66687973
O      -7.80539967     2.52709695    -7.93320224    -0.58375541    -0.53454577    -0.01695816
O      -4.09026098     6.32099039    -3.95697918     0.51934830    -0.09752848    -0.17768408
O      -3.89636844     6.44611171    -8.02048872     0.24293077    -0.95609756     0.14132267
O      -7.81424622     6.41731428    -3.92709205    -0.00795160    -0.97840133    -0.19259881
O      -7.81024107     6.41626636    -7.98367660    -0.44876276     0.02478397     0.82145092
O      -4.17755341     4.38453320    -1.98040990     0.78805961     0.03382034    -0.48155965
O      -4.01839971     4.33192437    -6.08232740    -0.37915778    -0.15405337    -1.35107635
O      -7.91631559     4.60512824    -9.89374032    -0.10811413    -0.80827730     0.39830110
O      -7.98558541     4.50604366    -6.03183452    -0.00943184     0.11862163     1.42880270
O      -7.99476890     8.73164478   -10.04530800    -2.11639430    -0.49511605    -0.20966028
O      -4.06402472     0.12286787    -6.08523499     1.47820437     0.32809690    -0.03598414
O      -7.82607396     0.02973711    -5.98799763     0.49106110     0.34189610    -0.76348591
O      -7.74050818     0.11084636   -10.08996908     0.88955423    -0.39054662     0.30241361
O      -2.12431421     4.36847562    -4.07418070     0.43690236     0.00131318     0.59176355
O      -1.91035559     4.11191266    -7.93418722    -1.23442629    -0.23442494    -0.66169581
O      -5.97050222     4.23158103    -3.94494651     0.36906906    -0.80640855    -0.49225252
O      -5.90197566     4.70076082    -8.04966689     0.77217106     0.54166811     0.41119154
O      -1.93920383     0.33944596    -3.99617170    -0.21448945     0.43820904    -0.59868704
O      -1.94004336     0.05812751    -8.10767861    -0.32360422    -0.25587414     0.70788083
O      -5.99341986     0.37680459    -4.15307503     0.71654174    -0.10043874     1.14171524
O      -9.90651880     8.15221745    -8.01854064    -0.17970231     0.43824956    -0.82844512
