# total energy = -630.81636926 eV

CRYSTAL
PRIMVEC
        0.00279571     0.02951795    -7.98606283
       -7.83802570     0.01298533    -3.99532603
       -3.92160916     8.71933433     0.00634407
PRIMCOORD
56 1
Li     -3.93354258     2.17490607    -1.92434049    -0.16060234     0.15975831    -0.36285688
Li     -3.86895437     2.07214688    -6.02045988    -0.58964720     0.09554454    -0.00345706
Li     -7.65810786     2.24285096    -9.97901831    -1.12845629     0.18982042    -0.10043283
Li     -7.73600084     2.15666566    -5.87098510    -0.65052387     0.14622096    -0.35419811
Li     -3.88341840     6.65644645    -2.04874482     0.14386804    -0.30937100     0.17783090
Li     -3.98316299     6.15663533    -5.84973325     0.19484989     0.79932807    -0.04339643
Li     -7.78414600     6.31963818    -9.88387160     0.22796642     0.01883556     0.27370267
Li     -7.85710883     6.65749548    -5.79985509    -0.18130342    -0.06995909    -0.63795520
Ti     -1.97241197     2.30294859    -4.04675285     1.02903462    -0.69018169    -0.29379338
Ti     -5.67363233     6.78022195    -7.91599628    -1.09351635    -0.42992578    -0.28478098
Ti     -7.76680497     4.41109897    -7.72080738    -0.09551784     1.01195061     0.12102859
Ti     -7.83506831     4.39030700    -3.70891480    -0.24008968    -0.67088965    -0.19346998
Ti     -3.89549630     4.26130049    -7.79695238    -0.22938156     0.46433919     0.33125179
Ti     -3.98886634     4.31913696    -3.73589054    -0.00749114     0.70792415     1.25648168
Ti     -6.20922586     8.67041140    -2.07147295     1.93658204     0.38805169    -0.40216174
Ni     -5.88673950     2.36721329    -8.17872110    -0.15077696     1.26149599     0.75413792
Ni     -5.99270960     2.20528438    -4.03790824     1.34791172    -0.31646735    -1.32808957
Ni     -9.74718209     6.61623844    -8.02589923    -0.12138883    -0.13273297     1.16473210
Ni     -9.75326568     6.45969157    -3.81606542    -0.46940287    -0.18754715    -1.41918222
Ni     -2.00973439     2.31228453    -8.00654094     0.82270262    -0.54983779     0.07487385
Ni     -5.90399711     6.47360330    -4.06555951     0.63832488     0.55156961     0.35945542
Ni     -5.93945477     8.74004148    -5.86559474    -0.04298063    -0.48743689    -1.14196268
Mo     -9.92220799     8.60980505   -10.16327279    -1.75413633     0.04173921    -0.38403730
Mo     -5.89472401     0.02746284    -6.45239781     0.83423483     0.02681489    -0.03942877
O      -1.95938672     1.94022265    -2.16246282    -0.16481550    -1.06100273     1.50409907
O      -1.94722623     1.80985896    -5.92465592     0.07561734     0.55226137    -0.50640207
O      -5.82736484     6.76355959    -1.87005774    -0.27535830     0.80373076    -0.71530441
O      -5.94364384     6.93275439    -6.01861972     0.24977396    -1.01782476     1.61204039
O      -5.86683032     1.95622032   -10.18688899     0.26988393     0.25769395     0.15903966
O      -5.88533203     2.03151956    -6.01996997    -0.01593619    -0.40934317     0.68040548
O      -9.68911785     6.72249225    -9.91275189    -0.09109006     0.18103226     0.74619457
O      -9.78911348     6.86299392    -6.13373515     0.10999914    -0.18465016     0.39402820
O      -3.89415342     2.40451355    -4.10104672    -0.84935476     0.03692713     0.72417620
O      -3.94750179     2.31431183    -8.00887226     0.32010928     1.10326779     0.12437610
O      -7.93351339     2.37158896    -3.93290946     0.13929489     0.75413335    -0.28121432
O      -7.80867422     2.44068593    -8.05290826     0.23100726     0.25112037     0.27676935
O      -3.78543300     6.27918446    -3.96679913    -0.37769736    -0.16023344    -0.23333333
O      -3.83577222     6.39882251    -7.82209948    -0.26162408    -0.07041640    -0.54252825
O      -7.87184730     6.35605567    -3.90770542     0.30046419    -0.18776087     0.23583611
O      -7.84118491     6.48417953    -7.90771094     0.07699594    -1.28216809    -0.43339216
O      -3.90171461     4.33510765    -1.91610175     0.25530659    -0.00832150    -1.82943098
O      -3.77670542     4.39255583    -6.02926595    -0.41550778    -0.73141513    -0.10301224
O      -7.72666022     4.33685714    -9.93061891    -0.24410146     0.29659657    -0.86900367
O      -7.78345783     4.38290865    -5.98107959    -0.15123499    -0.14149880     0.26103608
O      -4.03332342     0.06843940    -9.86112137    -0.24888844    -0.22923097    -0.28295159
O      -4.10450096     0.09599392    -5.96794849     0.14996201    -0.29862887    -0.27804012
O      -7.62108057     0.04829247    -6.05297912    -0.85137403    -0.05976029     0.16925192
O     -11.67605556     8.63781551    -9.89123980     0.54648300    -0.01438887    -0.38167210
O      -1.92061774     4.12127164    -4.08137416    -0.33558564     0.83957788     0.28515981
O      -9.79808517     4.53170014    -3.98891709     0.70756836    -0.40435538    -0.23714111
O      -5.86032770     4.46599778    -4.11109970    -0.34346172     0.11969836     0.25386000
O      -5.86428990     4.51841736    -8.10708848     0.68510003    -0.81483272     0.72122444
O      -5.87459569     8.71705642    -3.93783341    -0.32401617    -0.11258946     0.20190500
O      -5.76314563     8.60864565    -7.93915798    -0.11968141     0.44319048    -0.44640135
O      -5.93174563     0.02734388    -3.98667022     0.17486357     0.47449153     0.23162411
O      -5.96782800     0.60347697    -8.24932873     0.52319914    -0.70530052     0.99658198
