# total energy = -630.87568504 eV

CRYSTAL
PRIMVEC
        0.00285542     0.02004370    -7.95977623
       -7.82940539     0.00763210    -3.98158109
       -3.91729101     8.74642787     0.01461334
PRIMCOORD
56 1
Li     -3.96304629     2.22894504    -1.87561235     0.02929153    -0.10622016    -0.75933718
Li     -3.96786830     2.47997143    -6.03126751    -0.11155293    -0.42680631     0.37984757
Li     -7.94074172     2.19830835    -9.92099009     0.26229425     0.61304598    -0.32141340
Li     -7.63569422     2.47660559    -5.90291732    -0.61545442    -0.50683325     0.08159150
Li     -3.88012784     6.37743594    -1.98393640     0.15952741     0.28527149    -0.36013758
Li     -3.81216379     6.47430886    -5.80788863    -0.87716292    -0.38129569    -0.21405591
Li     -7.94505765     6.45957473    -9.95771458     0.07788051    -0.18681921     0.27639901
Li     -7.76647181     6.71300197    -5.87580247     0.32362179    -0.29872133     0.16649353
Ti     -1.85472473     2.15301412    -3.98087268    -0.81913058     0.64198801     0.09579647
Ti     -5.74244879     6.73413993    -8.03879123    -1.22239121    -0.54385795     1.09025211
Ti     -7.73113668     4.40247570    -7.72510611    -0.16636248     0.64812206    -1.43701243
Ti     -7.82773357     4.27148030    -3.76822495     0.41599996     2.31420746     1.00959001
Ti     -3.80637383     4.40003657    -7.86467225    -0.46410492    -0.30902014     0.29980882
Ti     -3.97382100     4.25620608    -3.79306444     0.29506652     0.98510667    -0.73709019
Ti     -6.14134429     8.71502310    -2.13230885    -0.39018121     0.40018229     0.27120596
Ni     -5.76470829     2.38568376    -7.97635396    -1.04578967     0.36894827    -0.13697898
Ni     -5.91064577     2.06977270    -4.01307732     0.37470550    -0.26741838     0.78887078
Ni     -9.71295113     6.57259029    -7.83435501    -0.59274366    -0.04449860    -0.41732038
Ni     -9.79240287     6.54343030    -3.88933078     0.72450952     1.11916997    -0.31147931
Ni     -2.04167905     2.01125360    -7.94721722     1.18676493     0.11943904    -0.41174993
Ni     -5.88077521     6.56560398    -3.98972140     0.49160707    -0.30039771    -0.21051842
Ni     -2.00283199     0.07362414    -6.01741069    -0.83236923    -0.34851223    -0.13046871
Mo     -6.07527964     0.14415109   -10.07800886     0.51261779    -0.47370840    -1.70536846
Mo     -9.79557944     8.62283085    -6.26653400     0.11040001     1.30604443    -0.93161997
O      -1.93796683     1.86145926    -1.99111531     0.48439020     0.77326916     0.19761684
O      -2.07489977     1.92429394    -6.06991092     0.49888763    -0.14491735     0.48686888
O      -5.85798580     6.85141625    -2.02363704     0.18779374    -0.83146120    -0.50365416
O      -5.75578704     6.99530028    -6.02131818    -0.76769731    -0.51054371     0.80607403
O      -6.00569325     2.09772880   -10.00515421     1.15917786    -0.85720224    -0.35048817
O      -5.87750036     1.92279803    -5.87796343     0.67434402    -0.08768082     0.11354341
O      -9.89151310     6.93161566    -9.71146617     1.12787270     1.04199429     0.04088704
O      -9.66430109     6.76021252    -5.95535749    -0.44391563    -0.71352238     0.26138851
O      -3.91482001     2.33663337    -3.94485225    -0.32322066     0.07038976    -0.16655901
O      -3.87635457     2.43168583    -8.01310811    -0.10865522     0.80331277     0.35046017
O      -7.79373591     2.41109679    -3.89247022    -0.77818911    -1.21042946    -1.08492384
O      -7.70222012     2.44075593    -7.96623520    -1.02975476    -0.37495789     0.17573402
O      -3.73278323     6.30282136    -3.92790408    -0.42898749     0.17008065     0.16732466
O      -3.89943713     6.46195417    -7.92182965     0.16230029    -0.02121742    -0.73309740
O      -7.83795984     6.41759188    -3.84405938     0.04125200    -0.60075905    -0.90163312
O      -7.78126769     6.31496431    -8.07925167    -0.13244474     0.05245802     1.11479828
O      -4.04902817     4.49148121    -2.07776313     0.60558884    -0.47833029     1.96429246
O      -3.96003234     4.51715939    -6.11866672    -0.08507655    -0.54646182     0.91433392
O      -7.87198833     4.36478400    -9.96376594    -0.31452454    -0.01124035    -0.50420276
O      -7.74788475     4.41906851    -5.99160995    -0.35284502    -0.02893197     1.06770069
O      -4.00739367     0.12189730    -9.87154789    -0.84768244    -0.00191959    -0.76973522
O      -7.94066985     8.71208312    -6.10870639     0.00257159    -0.05332574     0.44474757
O     -11.58534832     8.66040464    -5.96093888     0.61261705    -0.04573267    -0.35684684
O      -7.85677368     0.13670976    -9.98898766     0.24703778     0.16929077     0.00068097
O      -2.00753059     4.03891350    -3.98774099     1.21259923    -0.04426803    -0.09169370
O      -9.81619132     4.70134015    -3.99154221     1.63885774    -0.21431203    -0.49318885
O      -5.81479615     4.62269656    -4.02436447    -1.99556017     0.10507640    -0.40653134
O      -5.84007529     4.43295277    -8.10431275    -0.02176522    -0.38902873     0.40612639
O      -2.08702452     0.23613962    -4.03069533     0.58935946    -0.53089642     0.05488522
O      -6.04797889     8.52359414    -8.05503040     0.98793341     0.58150787     0.08996681
O      -9.78409584     8.47661316    -3.93834236    -0.00125360    -0.01097013     0.67827824
O      -5.79129777     0.53231681    -8.08751615    -0.60954390     0.22089889     0.70305228
