# total energy = -631.01711839 eV

CRYSTAL
PRIMVEC
        0.00285542     0.02004370    -7.95977623
       -7.82940539     0.00763210    -3.98158109
       -3.91729101     8.74642787     0.01461334
PRIMCOORD
56 1
Li     -3.87276766     2.45789900    -1.87659963    -0.31377905    -0.32430799    -0.07664817
Li     -3.93458489     2.37759785    -6.09335730    -0.12656818    -0.16772045     0.82990113
Li     -7.85878145     2.05583514    -9.94965719     0.21373871     0.08998496    -0.13029324
Li     -7.87847753     2.29737615    -6.00632796    -0.02378657    -0.14375924     0.54876454
Li     -3.80644505     6.35278951    -1.85344376    -0.28753002     0.18657804    -0.62533212
Li     -3.91382813     6.68799395    -5.90207843     0.13124986    -0.08034648     0.32369631
Li     -8.05046530     6.49323210    -9.93380619     1.43809013    -0.45920276     0.08183206
Li     -7.60795095     6.43200338    -5.90854036    -1.06584999    -0.08411790     0.27251563
Ti     -2.05146106     2.12258531    -4.05253437    -0.01787378    -0.82548604    -0.19240300
Ti     -5.86725823     6.49999292    -8.06072004    -0.94836836     0.40857530     0.48998460
Ti     -7.96467120     4.35548607    -7.73331622     0.35494733     0.86430409     0.63928274
Ti     -7.85888983     4.36376052    -3.74073975    -0.24821387    -0.17305093    -0.27360751
Ti     -3.92098140     4.39544350    -7.65394725     0.94546970    -0.65281607     0.31116094
Ti     -3.90428612     4.42813303    -3.74687785    -0.55542947     0.46189724    -1.24045476
Ti     -5.78563216     8.66389938    -2.04349728     1.39310521     1.14601611    -0.45333780
Ni     -5.92390050     2.32054505    -8.08658849     0.30326084     1.15244406     0.62416423
Ni     -5.98990462     2.28297110    -4.06071663     1.04901937     0.08093878     0.37431312
Ni     -9.77669303     6.64849641    -7.74455371    -0.18670110     0.16532074    -0.91157049
Ni     -9.77914914     6.53520263    -3.97173738     0.12509607    -0.91094356     0.32222670
Ni     -1.94774026     2.08026463    -7.92512115    -0.33151844     0.47960564    -0.79154642
Ni     -5.86071636     6.42764252    -4.01494635     0.24139381     0.79811337     0.33942951
Ni     -5.92144238     8.68361628    -6.09428551     0.98562688     0.72915495     1.49009654
Mo     -5.82084135     0.03226121   -10.19225242    -2.19892375    -0.30870256     1.42634353
Mo     -5.78415127     0.07002582    -6.16524673    -0.50245810    -0.24747889    -1.67674434
O      -2.03830609     1.86144001    -2.03088204     0.21979179     0.57129886     0.01081405
O      -1.93691378     1.80358838    -6.09586455    -0.49896144    -0.16445344     0.59212819
O      -5.84397345     6.76705254    -2.00684635    -0.41215772    -0.97967932    -0.21270765
O      -5.85258028     6.88265995    -5.90872853     0.23221662    -0.66669392    -0.68557339
O      -5.88226479     2.03676267   -10.05158983    -0.03592218     0.23118793     0.21509060
O      -5.92909236     2.08419534    -5.97710848    -0.03686489    -0.83483909     0.33118017
O      -9.71970444     6.91409447    -9.71785241    -1.35989547     0.13805485    -0.17617197
O      -9.84392775     6.91153970    -5.90669849     0.45336236    -0.38696916     0.47363755
O      -3.92757861     2.43453290    -4.15275183    -0.08280466    -0.07928661     1.02723051
O      -3.87742215     2.48053055    -7.91181778    -0.22062205    -0.64890898    -0.62204077
O      -7.91999090     2.37249744    -3.91188771     0.33345312     0.45743800    -0.79068255
O      -7.88184359     2.45038609    -7.96044064    -0.18519378    -0.23548057    -0.09756454
O      -3.86628612     6.38137340    -3.89208935     0.14553408    -0.31094200     0.02564492
O      -3.95742514     6.28806129    -7.93879715     0.16991450     1.52962676    -0.00269565
O      -7.79773117     6.37377026    -3.93622644    -0.52176003    -0.15942558    -0.16744122
O      -7.84975232     6.42290222    -7.91514011     0.29247031    -0.90241704     0.20598883
O      -3.82519034     4.39626099    -1.99611932    -0.07846935    -0.28065848     0.16287631
O      -3.99816232     4.47526359    -5.90401263     0.28772920    -0.12700377    -0.62929788
O      -7.78517609     4.37436821    -9.96250809    -0.14063814     0.47425380     0.76262250
O      -7.98059255     4.43711132    -5.92497485     0.37705220    -0.23561663    -1.88971997
O      -4.07419894     0.07925821    -9.93829786     1.43880509    -0.31325687     0.18873451
O      -7.91476209     8.70823877    -5.95252215    -0.92815252     0.38930690    -0.73098516
O     -11.71364978     8.74519956    -5.99964405    -0.05771485     0.18725355     0.31289461
O     -11.65256058     8.72408899    -9.99691457     0.63081510     0.06738718    -0.06153367
O      -1.97002222     4.17880705    -4.26669295    -0.26548876    -0.62589242     1.04023950
O      -9.82346528     4.57892808    -4.04109882     0.29266998     0.36721457     0.61176595
O      -5.85607359     4.43589185    -4.06743180    -0.57761612    -0.56415002     0.25317207
O      -5.88789280     4.42843441    -8.01965015    -0.49603887     0.06569443     0.05286576
O      -2.00214644     0.15928553    -3.99387634    -0.15413713     0.63363408    -0.01402610
O      -5.89103050     8.40588642    -8.02469641    -0.08203034    -0.04422467    -0.12153333
O      -5.87707304     0.22591732    -3.99623649    -0.06587111     0.17030895    -2.16756197
O      -6.04910498     0.52357452    -7.99738103     1.01409780    -0.10454790     0.50583823
