# total energy = -630.63903821 eV

CRYSTAL
PRIMVEC
        0.00285542     0.02004370    -7.95977623
       -7.82940539     0.00763210    -3.98158109
       -3.91729101     8.74642787     0.01461334
PRIMCOORD
56 1
Li     -3.90918538     2.43716409    -1.91441404     0.02591934    -0.39384608     0.31076996
Li     -4.00967456     2.30471740    -6.02059197     0.21191094    -0.21237765    -0.10755310
Li     -7.82191155     2.35850966   -10.07948058     0.31818877    -0.05483235     0.54942617
Li     -7.84134864     2.17102886    -6.01491782     0.16434628     0.00211239     0.56080543
Li     -3.96994172     6.47197380    -2.07948386     0.34258800     0.03315434     0.59146654
Li     -3.94601384     6.48230673    -5.89854095    -0.00959904    -0.10817803     0.37574140
Li     -7.83749646     6.58560174    -9.93102181    -0.18081743    -0.30517562     0.36103932
Li     -7.88428321     6.69549075    -5.85704477     0.44469912    -0.24937077    -0.00745125
Ti     -1.94084334     2.29016582    -4.04381514    -0.03987075     0.28696160    -0.47781546
Ti     -5.84954665     6.87474778    -8.00796301    -0.35366868    -0.14254324     0.89314061
Ti     -7.75627578     4.41663141    -7.67215106     0.15512349     0.50067550     0.62897031
Ti     -7.86581613     4.43029618    -3.70780244    -0.79700152    -1.07165060     0.24823636
Ti     -3.91521518     4.48088873    -7.69239510     0.35199447    -1.72622865    -0.63294680
Ti     -4.11832132     4.34411515    -3.69741373     1.00987121     0.43655537     1.02994708
Ti     -6.05168085     8.73612096    -2.17078078    -0.07906858     0.23398438     2.32039983
Ni     -5.85261679     2.30008298    -8.06870181     0.66443992     1.27954746     0.58475657
Ni     -5.92267877     2.29442082    -4.13318262     0.06530056    -1.09250475     0.25824982
Ni     -9.74808147     6.36589415    -7.97789741    -0.66062612     0.22771292     0.81098516
Ni     -9.76823215     6.48557208    -3.89392022    -0.28661253    -0.65789009     0.01707883
Ni     -1.91614216     2.10675315    -7.86180321    -0.39676484     0.51554050    -1.08469487
Ni     -5.92806061     6.62263679    -3.93719474     0.61460127    -0.25241340    -0.77429959
Ni     -5.84253843     8.70623942    -5.96670042    -0.49829196     0.41172991     0.62847912
Mo     -9.82581009     8.75867272   -10.23989285     2.65845179     0.22045453    -0.09300903
Mo     -9.81055735     8.62726493    -6.27824409    -0.44862331     2.35380340    -0.29984851
O      -1.98997485     1.81925794    -1.81724471     0.45038079     1.02311754    -1.42239020
O      -1.88037110     1.77915746    -5.98636883    -0.29556700     0.64811102     0.40064425
O      -5.91035748     6.79079815    -2.01591127     0.29844281    -0.34074580     0.44507102
O      -5.90146526     6.89870541    -5.91865017     0.42764498    -0.47887409     0.10880601
O      -5.84618329     2.03547960   -10.09613522     0.35396283    -0.27939528     0.37278217
O      -5.88845573     1.96547545    -6.00659082    -0.27247652     0.58403135    -0.49023862
O      -9.79716719     6.85825877    -9.80619626     0.17443081     0.07774354    -1.07361318
O      -9.80883042     6.84330898    -6.03386162    -0.00435245    -3.01593552     0.55618488
O      -3.80529154     2.46363019    -4.07705244    -1.41548481    -0.80817126     0.36653633
O      -3.82553844     2.39197574    -7.98602975    -0.56625492     1.00996460     0.89139231
O      -7.85787823     2.46375188    -4.04173068    -0.03033969    -0.58520225     0.37429795
O      -7.90996167     2.47151194    -8.03985642     1.41784708    -0.51801843     0.48576037
O      -3.91136957     6.18706899    -3.93629042     0.36023742     1.68869193    -0.45623197
O      -3.95146535     6.43067685    -7.99771161     0.10661490     0.11168346     0.55575242
O      -7.82174567     6.29241497    -3.90158028    -0.41434997     1.94942222    -0.54200857
O      -7.75679589     6.46717847    -7.91728246    -0.27928900    -1.19743479     0.11675780
O      -3.94572310     4.35027263    -1.89202091     0.12160341     0.22239761    -1.63958349
O      -3.90731364     4.47868752    -5.94144829     0.08197002    -0.24382462     0.34265869
O      -7.82697091     4.45032392    -9.89974077     0.03262446    -0.25249827     0.21599201
O      -7.77468171     4.33628811    -5.90608337    -0.29778943     0.43178919    -1.43558521
O      -7.88456420     8.68625076    -9.68769112    -0.64117634     0.05591974    -1.70044779
O      -8.06563337     8.65892369    -5.85944570     1.20085135     0.24485826    -0.27408462
O     -11.63031679     8.64998760    -5.97929863    -0.69097609     0.28308943    -0.29538746
O      -7.56407551     0.06539163    -9.92506161    -2.77587092    -0.38646025     0.26931232
O      -1.95409934     4.18159972    -3.91922448     0.19983046     0.05480538    -0.21158323
O      -9.79574800     4.43780650   -11.86379018     0.23807831     0.31203705    -0.46693253
O      -5.93530744     4.17044928    -3.99954451    -0.15773501     0.07838543    -0.30419774
O      -5.82178953     4.26754498    -7.94149205    -0.84370293    -0.06113696    -0.25200627
O      -1.99419701     0.14399854    -3.92439823     0.16827787     0.75055941    -2.83301561
O      -5.82292086     8.68573160    -7.96012581     0.26967846    -0.74994946     0.72889886
O      -5.88854360     0.35697808    -4.13000734     0.00530966    -0.00392561     1.36110966
O      -5.81725584     0.51415859    -8.02358700    -0.31048636    -0.64671636    -0.81715902
