# total energy = -631.25897666 eV

CRYSTAL
PRIMVEC
        0.00279571     0.02951795    -7.98606283
       -7.83802570     0.01298533    -3.99532603
       -3.92160916     8.71933433     0.00634407
PRIMCOORD
56 1
Li     -3.79698832     2.34682632    -1.91705584    -0.92306183     0.25587976    -0.13494817
Li     -4.05886476     2.15315447    -5.96488956     0.67482239     0.20443987    -0.08573996
Li     -7.79109201     1.98393593    -9.93958092    -0.06617653     0.45355617     0.06706553
Li     -7.73699765     2.26548655    -5.88690864    -0.49221234    -0.06076462    -0.24448169
Li     -3.97130276     6.66831373    -2.03147376     0.34593312    -0.29328727     0.34581711
Li     -3.95554315     6.59323291    -5.90842940    -0.01693383     0.14431579     0.38802442
Li     -7.69382151     6.65350947    -9.78332230    -1.01067171    -0.47698434    -1.17838090
Li     -7.94248276     6.23780048    -5.90491602     0.17082255     0.65592257     0.35725796
Ti     -2.00438198     2.43338383    -4.05375065     0.43961909    -1.01302667    -0.30924530
Ti     -5.88666936     6.77660873    -7.87523968     0.21318911     0.16729122     0.29282179
Ti     -7.70680833     4.39024458    -7.78940441     0.86785442    -0.30667162     0.26185518
Ti     -7.86517287     4.27030566    -3.65851110    -0.96487409     0.54198055     1.24947192
Ti     -3.88896781     4.42952795    -7.68287596     0.14990087    -0.03467345    -0.26692817
Ti     -4.07807124     4.45006741    -3.74432985    -0.72651421     0.07836958     0.29566448
Ti     -6.01145308     8.70169294    -2.28466843     0.41171375     0.76142627     0.49589516
Ni     -5.78012673     2.25065686    -7.93540724    -0.71318983    -0.57090745    -0.10738807
Ni     -5.88980333     2.37153220    -3.95884868     0.27162121    -0.92837962    -0.91976515
Ni     -9.78478968     6.36812389    -8.10151519    -0.19054669     0.05089889     0.13069797
Ni     -9.80145794     6.47818779    -3.97513478    -0.04324085     0.27218566    -0.41257160
Ni     -1.97476931     2.10627035    -8.01990408    -0.14785978     0.66650416     0.36737971
Ni     -5.92042589     6.61714515    -3.92697187    -0.71449706    -0.34618531    -0.37231598
Ni     -2.04066516     0.06324370    -5.94887667    -0.05940764     0.40352540     0.05403070
Mo     -9.79415751     8.74038467   -10.29938152    -0.87526299    -0.02731465    -0.43938215
Mo     -9.76762414     8.66124835    -6.35448084    -0.39035083     0.78483169    -0.82862536
O      -2.05745174     1.86906169    -2.04843586     1.23669760     1.16148437     0.14284518
O      -1.99785044     1.88216240    -6.04800350     0.11115304     0.59277059     0.64985273
O      -5.90748492     6.86063166    -1.98091980     1.15107486    -1.11933290     0.24774216
O      -5.98083590     6.98059596    -5.80741782     0.34934075    -0.89920482    -1.06346148
O      -5.72813948     1.83275171    -9.83842955    -0.01643036     0.85763728     0.98114455
O      -5.89496469     1.95703674    -6.06085144     0.24224861    -0.39770198    -0.10949367
O      -9.81002945     6.84757332   -10.12997693     0.24542093    -1.48496991     0.55077708
O      -9.82413328     6.76554156    -5.89668069    -0.02761465     0.15463094     0.63558585
O      -3.88944764     2.46049854    -3.98895853    -0.11121002     0.08955189     0.07662722
O      -3.96977556     2.50473178    -8.06477947     0.02428386    -0.80415510     0.94230295
O      -7.77142727     2.34188885    -3.94974592    -0.51169941    -0.07943301    -0.03720681
O      -7.73368183     2.41345827    -7.97678843    -1.02517855     0.35963736     0.09205022
O      -3.96712626     6.32173290    -3.96138570     0.13699459     0.70486963    -0.38934101
O      -3.92766282     6.40963684    -7.83607962     0.36505692     0.30488705    -0.65354525
O      -7.92702212     6.19990331    -3.92513953     0.31353946     0.61573660    -0.04306234
O      -7.76897912     6.36454122    -8.00269690    -0.79815279     0.30770577     0.79485505
O      -4.09561245     4.38276262    -1.98555509     0.37456391    -0.04820541    -0.50563912
O      -3.98883986     4.30515985    -5.93662118    -0.11360728     0.17859449    -0.09843474
O      -7.72806321     4.33521419    -9.84679427    -0.77553574    -0.01450699    -1.21666585
O      -7.96572779     4.41591457    -6.01837020     0.21943256    -0.67943234    -0.78309018
O      -7.83628651     8.55586269    -2.10686456    -0.74221861     0.44237446     0.05213955
O      -7.99677069     8.73443306    -5.98665716    -0.06712608     0.40828800    -0.21678890
O     -11.59115196     8.73960568    -6.10513383    -0.61670085    -0.07941144     0.01891841
O      -7.63876294     0.08453437    -9.94089302    -0.35738995    -0.50359567    -0.30053155
O      -2.01179891     4.38184929    -4.08144832     0.27773349    -0.32163202     0.14098178
O      -1.98902886     4.04193507    -8.00833382     0.25881311    -0.01872629     0.12700648
O      -6.04031881     4.27444015    -4.10898063     1.93432796    -0.47647306     0.19839093
O      -5.84415594     4.75773541    -8.04069810     0.25978333     0.00586713     0.81637367
O      -2.04830389     0.38178771    -4.05513188     0.47181121     0.14517472    -1.18300154
O      -5.90883021     8.70696257    -7.96296598     0.17852179    -0.56537806     0.28888261
O      -5.92431610     0.38145198    -4.05747706     0.43056418     0.34667985    -0.44531237
O      -9.76382469     8.20745619    -8.16893911     0.46009436    -0.08875059     1.34824794
