# total energy = -630.92737363 eV

CRYSTAL
PRIMVEC
        0.00279571     0.02951795    -7.98606283
       -7.83802570     0.01298533    -3.99532603
       -3.92160916     8.71933433     0.00634407
PRIMCOORD
56 1
Li     -3.99489177     2.08532986    -1.91700853     0.04607177     0.34532051     0.09017432
Li     -4.01193660     2.10116238    -5.92476258     0.36695651     0.53820594    -0.38783941
Li     -7.76395344     2.17395030   -10.06419709    -0.30896316    -0.33920278     0.77838776
Li     -7.84067165     2.29141343    -5.94587531    -0.42993500     0.07489362     0.16003261
Li     -3.84218686     6.74807443    -2.02015113    -0.12151854    -0.09423865     0.19900108
Li     -3.95115184     6.45705705    -5.91544541    -0.11283761    -0.05092604    -0.32712899
Li     -7.76049898     6.58527361   -10.00351349    -0.26877578    -0.25113429    -0.17326207
Li     -7.92447088     6.49796493    -5.93603683     0.02171549     0.13135484     0.00517606
Ti     -2.03859797     2.43533797    -4.06088644     1.09330660    -0.76681634    -0.12698894
Ti     -5.90395077     6.76534526    -7.96849132     0.53671607     0.75565102     0.14259573
Ti     -7.62831606     4.45882255    -7.88435524    -0.78541410    -1.28140612     2.50006076
Ti     -7.81539279     4.38480494    -3.67525748    -0.57490546     0.46925791    -0.80390971
Ti     -3.87514299     4.36512139    -7.70844520     0.74157367     0.05516756    -0.29415258
Ti     -4.10174211     4.43418863    -3.69036717     0.96595670    -0.31302279     0.26812833
Ti     -6.01578710     8.70948161    -2.16272521     0.37472207     0.73565299    -0.74415949
Ni     -5.93654398     2.01717500    -8.00745927     0.47500772     0.48809332     0.05965216
Ni     -5.88505264     2.25164060    -3.94078079     0.71976281    -0.31520900    -0.12631822
Ni     -9.81244228     6.33300808    -8.00123144    -0.05724606     0.23855863     0.37405575
Ni     -9.75989565     6.63417350    -4.04405881     0.75040283     0.16956396     0.74107770
Ni     -2.04057996     2.11821726    -7.97777974     0.69154337     0.20313314     0.29524377
Ni     -5.82543106     6.70741341    -4.11909677    -1.08041722    -0.18323289     1.21572034
Ni     -2.01454273     0.06959846    -5.92192166     0.57817951     0.95120878    -0.48689194
Mo     -9.85350672     8.51586942   -10.20977833    -1.69463741     1.41872522    -1.90024874
Mo     -5.85479911     0.18569080    -6.31668769    -0.78399321    -2.00417106    -0.99407391
O      -1.94224183     1.87288520    -1.93492937    -0.44877819     0.52842627    -0.03334022
O      -1.96932673     1.89988962    -5.98771518    -0.16763027     0.29869103    -0.08747355
O      -5.80726333     6.77617521    -2.11875283     0.01083760     0.57434561     0.68329178
O      -5.90873234     6.96565217    -5.95530339     0.12627061    -0.57374854    -0.65303957
O      -5.87415589     1.77299107    -9.84335683    -0.02472935     0.60702702     0.15422621
O      -5.98324782     2.05990589    -6.14310778     0.90867011     0.54172752     0.82242257
O      -9.91201516     6.66527577    -9.94600800     1.17733678    -0.72094787    -1.35738825
O      -9.82372084     6.92360840    -5.90565062     0.37365499    -0.56369608     0.30320928
O      -3.89523266     2.32794862    -3.98498570    -0.77857515     0.92903438     0.28930321
O      -4.02527731     2.40261151    -7.95318785    -0.30317199    -0.70501129    -0.09992328
O      -7.75185803     2.46240179    -3.89299620    -0.29193896    -0.46235561    -0.82423429
O      -7.88304679     2.42010021    -8.02600970     0.76132771     0.75748395     0.15875417
O      -3.96269363     6.30644338    -4.05967359     0.33733290    -0.17165665     0.73151769
O      -3.71592911     6.36880658    -7.96165211    -2.09456011    -0.28843127    -0.04310821
O      -7.80162361     6.40321832    -4.00515866    -0.04393707    -0.60618001     0.30903820
O      -7.83904746     6.47455714    -8.06717698     1.08325601    -0.52778156     0.28727491
O      -3.95924949     4.21685810    -1.95580810     0.34691858     0.14083723    -0.31073250
O      -3.89333981     4.23252972    -5.95751208    -0.15927687     0.37004104     0.21129906
O      -7.78777685     4.47645818    -9.88980169    -0.40224550     0.38623157    -0.42565353
O      -7.93684327     4.60613382    -6.08702216     0.58988316    -0.65359304    -1.19883198
O      -7.97653360     8.64026696    -9.96687504     1.35972355    -0.16144355    -0.01034993
O      -4.01513700     0.06018668    -6.17479657    -0.81266352     0.60529024     0.31284276
O      -7.71061552     0.13546192    -6.02503449     0.07177266    -0.49611242    -0.18687639
O     -11.66170137     8.74249695   -10.01518612     0.62181911    -0.44507712    -0.43084969
O      -9.76415560     4.32477351    -7.95901112    -0.85538362     0.55777434    -0.49349395
O      -1.90782648     4.02526966    -7.90555640    -0.17812315    -0.09611875    -0.41785566
O      -5.88596809     4.12933619    -3.94196453    -1.32421446    -0.26372299    -0.42598735
O      -5.77586119     4.70810979    -8.00292823    -0.28804537     1.09124555     0.15804860
O      -1.98288297     0.40514308    -4.00475225    -0.08868829    -0.93196239     0.68326802
O      -5.86317429     8.70113997    -7.97233182    -0.11460245    -1.04269442    -0.61038566
O      -5.72481000     0.37871023    -4.07785650    -0.78219766    -0.11650524     0.78556992
O      -9.91396404     8.15609592    -8.10456001     0.42990617     0.64141671     1.19537534
