# total energy = -630.92212707 eV

CRYSTAL
PRIMVEC
        0.00285542     0.02004370    -7.95977623
       -7.82940539     0.00763210    -3.98158109
       -3.91729101     8.74642787     0.01461334
PRIMCOORD
56 1
Li     -3.93707788     2.31105159    -2.02838499    -0.05025247     0.03035292     0.30928394
Li     -3.93870970     1.93440182    -6.02336693    -0.08268868     0.27121427     0.16821378
Li     -7.83079767     2.38633605   -10.08132151     0.12929562    -0.30462035     0.68788612
Li     -7.80634328     2.12962026    -5.87870362    -0.23178275    -0.00868432     0.02867360
Li     -3.96915838     6.51019993    -1.95754846     0.34967367    -0.20751759     0.18626881
Li     -3.90809134     6.45245421    -5.81410872     0.16380603     0.56939459    -0.28264409
Li     -7.75388618     6.38277442    -9.95544021    -0.30284722    -0.15231542     0.10952612
Li     -7.79035349     6.55602984    -5.68298820    -0.34258991     0.13797932    -1.06257806
Ti     -1.89763125     2.32177759    -4.04325851    -0.35845050     0.11974981    -0.04944559
Ti     -5.92447266     6.65123438    -7.81902129     0.99803501     1.44428758    -0.36447968
Ti     -7.75353359     4.39033972    -7.70945025    -0.53247270     0.07624882     0.40315396
Ti     -7.98743695     4.33542086    -3.86451292     0.64773968    -0.26090805     0.87307715
Ti     -3.90247932     4.41649695    -7.74876787     0.17516832    -0.72772850     0.25939499
Ti     -4.07457122     4.42385001    -3.86094183    -0.61836374     0.24905247     1.55893368
Ti     -5.85996421     8.65549348    -2.24665047    -0.11511113     1.80284186    -0.22039515
Ni     -5.89963445     2.41611107    -8.06567741     0.87607773    -1.25792476     0.10852494
Ni     -5.93489437     2.21969156    -4.02867608    -0.01730826     0.82139056    -0.12158933
Ni     -9.80674426     6.55971183    -7.81694981     0.02589331    -0.02389305     0.39105553
Ni     -9.78886757     6.49887743    -3.83971963    -0.11371144     0.14496970    -0.98141890
Ni     -2.03477078     2.21434609    -7.86231709     0.89381105    -0.59479373    -1.36975402
Ni     -5.86443945     6.48281072    -3.92876620     0.36830499     0.29082977    -0.07953644
Ni     -5.83984843     8.71280349    -5.89244552     0.20908860    -0.12980111    -1.32341118
Mo     -9.74881577     8.71231448   -10.17534054    -0.23723957     1.28662302     0.48761027
Mo     -9.76153048     8.69337557    -6.31082311    -0.80175889    -0.02131183     0.14037293
O      -1.91609379     1.90407878    -1.86038769    -0.45899170    -0.52153525    -1.20747897
O      -1.94187544     1.87843131    -5.99552261    -0.24909655    -0.52934273     0.41087655
O      -5.87940686     6.80667480    -1.97084330    -0.35019807    -0.78468570     0.09632064
O      -5.84343950     6.82156782    -5.88745734    -0.27974208     0.10368253     0.73512622
O      -5.95472301     2.14309775   -10.01962822     1.05640777    -1.05835754    -0.44893542
O      -5.90046799     2.00716772    -6.03999285     0.13390532    -1.16853619     0.79569754
O      -9.65283792     6.88407936    -9.76954190    -0.29244831    -0.65440280     0.13894007
O      -9.78035889     6.81593241    -5.80001668    -0.63465520     0.18960260    -1.14395856
O      -3.94999521     2.55743203    -4.12979549     0.92692693    -1.71374302     0.34977607
O      -3.91383685     2.43532914    -7.92549319    -0.17283566     0.81095548    -0.03537363
O      -7.89335293     2.25730383    -3.92973306    -0.32848502     1.29958757    -0.79658416
O      -7.79439106     2.41277264    -7.95858077    -0.65399494     0.24495783    -0.25293944
O      -3.86338546     6.39428310    -3.92070579    -0.13973140    -0.25210179    -0.10139413
O      -3.98531835     6.42843717    -7.89352896    -0.12435479     0.04511209    -0.19826813
O      -7.74570144     6.38939412    -3.93991949    -0.86547521    -1.08559176     0.80337562
O      -7.92734870     6.33605609    -7.90356484     1.27336212    -0.09503097     0.24099236
O      -4.03438338     4.40697630    -2.06259361     0.39757663     0.23310551    -0.89682999
O      -3.93340978     4.61958727    -5.99746235     0.30605344    -0.49986590     0.49372262
O      -7.94037217     4.30447628   -10.04456204    -0.19123549     0.47176201    -0.06084636
O      -7.86187443     4.31825897    -5.96025654     0.21783531     0.06767971    -0.15120521
O      -3.90025417     0.06004016    -2.14925679    -0.60643444    -0.03929671     0.33649685
O      -8.00020770     8.61108186    -5.89253543    -0.61568211     0.79339033    -0.65972931
O      -3.91762694     8.65989663    -2.22618786     1.68119726     0.07918533     0.81144900
O     -11.49290637     8.71025418    -9.88945075    -0.47365490    -0.15556431    -0.07386701
O      -9.66945394     4.21745858    -7.99151645    -1.42235574    -0.54549214    -0.18743189
O      -2.08417615     4.62592869    -0.22344299     1.50683839    -0.11943371     0.49449770
O      -6.01370048     4.20873011    -4.00986499     0.73716986    -0.04220932    -0.49481557
O      -5.81122995     4.43057433    -8.00818028    -1.63786552    -0.14301748    -0.13202486
O      -1.86402538     0.26487644    -4.10751581    -0.47997957     0.42579870     1.08893277
O      -5.91280266     8.47793479    -7.83394220    -0.13873715    -0.40241635     0.31666262
O      -5.93670324     0.16246676    -4.02932259     0.09701263     0.81786085    -0.70841892
O      -5.82539054     0.56118609    -8.10137616     0.46117283     0.08652963     0.50867799
