# total energy = -630.50514070 eV

CRYSTAL
PRIMVEC
        0.00279571     0.02951795    -7.98606283
       -7.83802570     0.01298533    -3.99532603
       -3.92160916     8.71933433     0.00634407
PRIMCOORD
56 1
Li     -3.92980107     1.99424998    -1.89589526    -0.31890575     0.67490655     0.10969030
Li     -3.79199128     2.47529394    -5.99463427    -0.53652880    -0.42526724     0.44980045
Li     -7.73132150     2.04363337    -9.87173573    -0.74176261     0.43026892    -0.29104653
Li     -7.86355781     2.31375643    -5.90948198     0.02211125    -0.36912286     0.34613137
Li     -3.95671215     6.60344525    -1.90847281    -0.05974556    -0.15635886    -0.39607406
Li     -3.84420085     6.55425736    -5.96029106    -0.48982717    -0.23690568    -0.08857573
Li     -7.91052074     6.31267920    -9.92022609     0.41823748     0.39986267    -0.23649066
Li     -7.94203541     6.75348674    -5.92315570     0.11433942    -0.57513657    -0.07117564
Ti     -1.95580039     2.30822344    -3.92355995    -0.71055671     0.65543833    -0.17095927
Ti     -5.91779738     6.78458981    -7.88974099     0.55814885    -0.95704662    -0.14610217
Ti     -7.66149502     4.38944446    -7.71559184    -0.64964867    -0.54282990     0.79776722
Ti     -7.78286969     4.35910173    -3.68479078    -0.36642902    -0.39007752    -0.40527440
Ti     -3.92200206     4.38507115    -7.78300468     0.16245821     0.04279002    -0.75899857
Ti     -3.99499563     4.46953708    -3.80211007    -0.31309251    -1.43657527     1.98691384
Ti     -2.05658786     0.08078434    -2.14241301     0.83441742    -0.75859762     0.09995841
Ni     -5.92980930     2.18456508    -7.92242072     0.60435487    -0.41609058     0.82744093
Ni     -5.92515512     2.27707110    -4.04686347     1.23066966    -0.90277064     0.06359287
Ni     -9.86163768     6.40095207    -8.15635980    -0.05604482    -0.10140354     0.77678125
Ni     -9.81880538     6.48766090    -4.04397045    -0.20573697    -0.12307356     0.71719765
Ni     -1.89318922     2.24315413    -7.93246013    -0.49606627     0.26882711     0.21126749
Ni     -6.02692773     6.61329809    -4.01597056     0.67717416     0.34847359     0.07490907
Ni     -5.87299367     8.72472813    -5.96867298    -0.13439060     0.95297203    -0.20625587
Mo     -9.84139970     8.71938414   -10.25262823     0.47733186     0.46809409    -1.08595488
Mo     -9.80436444     8.69838901    -6.30907681    -1.45301782     1.19663074    -0.88775841
O      -1.98971362     2.06332444    -1.86588664     0.02887410    -0.84219673    -1.00886258
O      -1.97882225     1.90874938    -6.07146158     0.63905349    -0.68679962     0.59088210
O      -5.90568406     6.91952357    -2.11108142    -0.74404381    -1.23264105    -0.16602829
O      -5.85984697     6.81540029    -5.93734458    -0.89606407     0.95058355     0.17615099
O      -5.87104933     1.94510514    -9.80189581    -0.06485425    -1.22581855     0.16552968
O      -5.98114404     1.92828416    -6.04201433     0.65047671    -0.42191336     0.17320260
O      -9.73607141     6.71339376   -10.14742878    -0.54161457     0.74425092     0.00227691
O      -9.87753580     6.85348307    -5.84767697     0.28249917    -0.44680920    -0.09035407
O      -3.96508765     2.38219103    -3.96618955     0.76906055     0.58223961    -0.25748768
O      -3.97904046     2.41388709    -7.84199061    -0.24843150     0.54403630    -1.04336146
O      -7.79040279     2.40624985    -3.90976218    -0.75258455    -0.43798116     0.08957937
O      -7.85988071     2.37847975    -7.86582260     0.21087184     0.03119348    -1.17470404
O      -3.85727466     6.30715148    -4.05083357    -1.11205615     1.07375287    -0.27088190
O      -4.05814559     6.46774183    -7.94049649     1.67265239    -0.14189248    -0.21059633
O      -7.92620588     6.24742517    -4.09623104     0.58599579     0.72970927     0.36821119
O      -8.07859570     6.22475531    -8.02710497     2.16831563     1.13554016     0.88359492
O      -3.70525533     4.51791543    -2.02652738    -0.76852443    -0.11118000    -0.09667901
O      -3.82925435     4.43304590    -6.02684567     0.24339844     0.07901462     0.26874735
O      -7.67241076     4.43976009    -9.91595815    -0.10463190    -0.63266715     0.37615731
O      -7.64745916     4.14920218    -5.96107241    -0.24166578     1.01961248    -0.91498326
O      -4.00740669     0.01450807    -2.17184006     0.03796033     0.13138816     0.72398142
O      -8.00654307     8.66096784    -6.09078675     0.33709905     0.36326312     0.04627931
O      -3.90341549     8.64716716    -2.02091821     1.21095858     0.78092449    -0.36218665
O     -11.65544211     8.65689751   -10.13328832     0.17536740     0.37539891     0.22725495
O      -1.97806653     4.23031184    -3.99117938     0.61777887     0.17400091    -0.57003725
O      -9.69231750     4.36808363    -3.98353174    -1.30499259    -0.13808967    -0.06454865
O      -5.87774617     4.14763421    -3.97936491     0.53604616    -0.07881271    -0.21736995
O      -5.81313674     4.79904882    -7.93595035    -0.52197922    -0.64496745    -0.44621893
O      -1.91116869     0.37198150    -3.99985977    -0.19764428    -0.18390174    -0.02308472
O      -5.92463758     8.57083030    -8.13092465    -0.33199326     0.96895245     0.65662568
O      -5.76286394     0.27222184    -4.07134349    -0.84274011     0.42611319     0.40001857
O      -9.81051476     8.27828641    -8.14045381    -0.13869536    -0.35655451     0.21507830
