# total energy = -630.81037887 eV

CRYSTAL
PRIMVEC
        0.00279571     0.02951795    -7.98606283
       -7.83802570     0.01298533    -3.99532603
       -3.92160916     8.71933433     0.00634407
PRIMCOORD
56 1
Li     -3.94462776     2.25835634    -1.95704387     0.33654946    -0.04641842    -0.14460264
Li     -3.85061898     2.38810006    -5.95914087    -0.31761893    -0.82789796     0.33236713
Li     -7.85956112     2.57229087    -9.99165763    -0.14031486    -0.31987591     0.07394931
Li     -7.84403783     2.35196301    -5.84111930     0.14300566     0.01149020    -0.57287005
Li     -3.75820432     6.35749273    -1.93692025    -0.74774879     0.04887543    -0.05138667
Li     -3.89938531     6.36059679    -5.78294846    -0.30234361    -0.13846806    -0.38888809
Li     -7.84807844     6.46165913    -9.91672999    -0.47789485     0.17052542    -0.16573677
Li     -7.73522501     6.68578806    -6.04185333    -0.76357999    -0.15332049     0.66421727
Ti     -1.87669366     2.15859969    -3.93668077    -0.42667504     0.44674458    -0.67636050
Ti     -5.80981067     6.70374283    -7.95518194     0.28721138     0.21237509    -0.20503346
Ti     -7.74656536     4.41413534    -7.78929853    -0.30260615    -0.51690006     1.78197788
Ti     -7.81339235     4.50162588    -3.83022206     1.04486189     0.02097024    -0.25084874
Ti     -3.74672580     4.23554754    -7.69266246    -1.04469465     0.02519688    -1.15987503
Ti     -3.90782779     4.40492459    -3.77790458     0.51814816    -0.16707330    -0.36437788
Ti     -6.20804718     8.61921943    -2.10093670     0.10580148     0.49911469     0.11885456
Ni     -5.80682899     2.29637704    -8.10024327     0.11935980    -0.41378602     0.80509964
Ni     -5.85478131     2.32685645    -4.04618434    -0.73127485    -0.08212318     1.22390633
Ni     -9.81482404     6.75468771    -7.90736648    -0.21500638    -0.14316574     0.02773077
Ni     -9.88523400     6.35493164    -3.96021811     0.96883834     1.26515898    -0.89630355
Ni     -1.81012192     2.02388123    -7.87491347    -0.68775963     0.15639997    -0.54165442
Ni     -5.89893717     6.69406877    -3.98966800     0.60906446    -0.66299240    -0.04829186
Ni     -5.91106476     8.64439719    -6.02511232    -1.45986747     2.22600038     0.69901095
Mo     -6.21466461     0.14361147   -10.32342712     1.08650262    -1.46057012    -0.04569057
Mo     -5.89317134     0.02489840    -6.25674361     0.68193445     0.08921800    -0.56137778
O      -1.81834971     1.81654310    -2.09110340    -0.82357046     0.20103522     1.50830945
O      -1.97003870     1.83414111    -5.96722946     0.39434772    -0.46456930    -0.71558553
O      -5.81037604     6.76667457    -2.00765157    -0.46704870    -0.61351187     0.11312214
O      -5.83390368     6.79625439    -5.99980709    -0.16147653    -0.01412741     0.08783467
O      -5.85488867     1.99144037   -10.09780016    -0.55850879    -0.24541478     0.07882776
O      -5.95020993     1.89271619    -5.79738856     0.66242348    -0.03738967    -0.72065419
O      -9.94338536     6.97969873    -9.76225482     0.49997885     0.01584221    -0.41919235
O      -9.77724198     6.76443688    -6.01390890     0.82795726     0.04780948    -0.28648311
O      -3.99986135     2.37849640    -3.99023771     1.11499188     0.30964080    -0.19467857
O      -3.77256062     2.33927771    -8.01009079    -0.27135207     0.15816389     0.35796409
O      -7.78659126     2.48398770    -4.00268713     0.07246410    -0.15112012     0.79053963
O      -7.81972132     2.40005177    -7.96927183     0.96799826     0.00017192    -0.62437908
O      -3.85433616     6.45415460    -3.90025537     0.09410200    -0.83614851     0.01647621
O      -3.97076372     6.15751232    -7.95248152     0.41552796     1.27204719    -0.37014131
O      -7.89591291     6.43847378    -4.01898230     0.11858589    -0.78027180     0.29278235
O      -7.75274398     6.35862531    -7.96408956    -0.19842469     0.03145689    -0.09927556
O      -3.94461735     4.17917338    -2.05805925     0.04794076     0.81440170     1.01084076
O      -3.92653479     4.40617212    -5.97109139     0.54293990    -0.54439088     0.89415023
O      -7.94625765     4.43041852   -10.01398388     0.36554359     0.25045267    -0.23581424
O      -7.95853789     4.31456153    -5.99251180     0.35534047     0.37298641    -1.17673506
O      -7.98475991     8.64084282   -10.05087084    -0.54358122     0.53893898    -0.25255605
O      -3.97284940     0.07979832    -6.06790605     0.47511768    -0.99762193     0.17153032
O     -11.55869689     8.62179238    -6.12256815    -0.21402793     0.22105887    -0.01525673
O      -0.14004896     0.05558770    -6.01226182     1.81228059     0.36181939    -0.61051035
O      -1.92016548     4.06617417    -4.05172158    -0.36566046    -0.22170997    -0.05653940
O      -9.77425446     4.50715584    -4.07367619     0.49534621     0.07110241     0.16385363
O      -5.77867945     4.54918107    -4.14799320    -2.04375387     0.48712827     0.47555908
O      -5.81385710     4.30972074    -7.91466510    -0.61734248    -0.55123929    -0.57177723
O      -1.94667518     0.13092872    -3.91334015    -0.02153332    -0.54582958    -1.22009064
O      -5.78547413     8.55377557    -8.13717762     0.11305542    -0.57447794     0.47497891
O      -9.89985103     8.28429976    -4.07969111    -0.37891875    -0.00503937     1.67720791
O      -5.67927489     0.32723447    -8.11736595    -1.27169657     1.12516182    -0.34901609
