# total energy = -630.48186838 eV

CRYSTAL
PRIMVEC
        0.00279571     0.02951795    -7.98606283
       -7.83802570     0.01298533    -3.99532603
       -3.92160916     8.71933433     0.00634407
PRIMCOORD
56 1
Li     -4.03000036     2.22930309    -1.78763418     0.59584519     0.07127286    -0.58936745
Li     -3.93221005     2.50652199    -5.88953060    -0.38251598    -0.53044970    -0.79313058
Li     -7.73640970     2.45324484    -9.95596649    -0.44486263    -0.04812607    -0.04140659
Li     -7.86136155     2.21905915    -5.89443493     0.46393354     0.03247268    -0.32595112
Li     -3.89006780     6.74726123    -1.80749464     0.28802002    -0.76231785    -0.44207307
Li     -3.85901764     6.45596845    -5.81864920     0.09035081    -0.00810220    -0.70198614
Li     -8.01967313     6.32935655    -9.92551224     0.32717572     0.07057916     0.31351003
Li     -7.89139892     6.44440053    -5.97729409     0.07815885    -0.06799020     0.29328194
Ti     -2.01726653     2.16677303    -4.13926816    -0.01781325    -0.02033662     0.52284334
Ti     -5.77542376     6.67228724    -7.88616001    -1.05095891     0.37980447    -0.33013928
Ti     -7.87578747     4.35870768    -7.74569173     0.04504113     0.65155696    -0.69357736
Ti     -7.85906391     4.32804412    -3.77351505     0.68188203    -0.47492432     1.21035043
Ti     -3.79626642     4.39298649    -7.74367174     0.47588640     0.24539535    -0.95826086
Ti     -3.91022194     4.44078775    -3.68620503    -0.71350635    -0.36698386     0.53451917
Ti     -6.19564776     8.68535142    -2.16443510    -0.12461263     1.28881795    -0.21026612
Ni     -5.85672445     2.45570397    -7.97806694     0.12653322    -0.52208776     0.06982010
Ni     -5.80761507     2.05689233    -4.06139601    -1.55302807     0.15075073     0.89395620
Ni     -9.75146012     6.82762864    -7.89982600    -0.28969630    -1.37899294    -1.15117985
Ni     -9.63274436     6.51066007    -4.04459405    -1.27352456    -0.11285041     0.00717219
Ni     -1.89000519     1.92798305    -7.98891343    -0.01628923     0.79107710    -0.15055791
Ni     -5.85084085     6.52121073    -4.00227468     0.15373675     0.41631044     0.54075211
Ni     -6.08977219     8.63809983    -6.01478856     0.18304898     0.90347344     1.32905078
Mo     -6.09819654     0.15008318   -10.24245842     0.47107431     0.25428548    -1.14571115
Mo     -9.81657104     8.68120427    -6.36996584    -0.36888047     0.98204946     0.15008350
O      -1.83915122     1.83333531    -1.96077362    -0.68562496    -0.28116319    -0.06195617
O      -2.03394082     1.79717600    -6.07507011     0.29478174     0.00477729     0.44849912
O      -5.77078166     6.90179972    -2.04494762    -0.32375057    -1.98928710     1.05853411
O      -6.04749519     6.80928533    -5.87462296     0.78079286    -0.13457953    -1.29559855
O      -5.89675263     2.08166717   -10.03017094    -0.09008946    -0.56101269    -1.10317190
O      -5.85281425     1.89948022    -5.91162864    -0.21032142     0.76848780     0.06755198
O      -9.82568297     7.06908445    -9.71463008     0.66259403    -0.71665484    -0.19584315
O      -9.74694580     6.75374631    -6.11276826    -0.04286907    -0.68280064     1.26034818
O      -3.98368220     2.27523460    -4.02323800     1.75134262     1.09921483     0.38219786
O      -3.79570425     2.51492873    -7.94571337    -0.40453295    -0.58342566     0.30393542
O      -7.80490091     2.37690405    -4.02237273     0.27445133    -0.15418400     0.77037643
O      -7.81504536     2.40975241    -7.96381118    -0.82289298    -0.05515482    -0.47810526
O      -3.75511647     6.32308459    -4.03784946    -0.51093054     0.58585344     1.30897733
O      -3.85119028     6.51056980    -7.86206864    -0.76771786    -1.13181893    -0.28897995
O      -7.81062742     6.26166168    -3.86321921     0.63068591     0.71530450    -0.63321941
O      -7.83069914     6.41926972    -7.97786138     0.26171613    -1.10666084     0.28800312
O      -3.84332512     4.27775069    -1.92483867    -0.20599547     0.37414948    -0.81010709
O      -3.74165681     4.40150632    -5.99602148    -0.29984423     0.14052472     0.29661451
O      -7.89181312     4.36926258    -9.88305423     0.13989620    -0.23997438    -2.03266138
O      -7.83716008     4.22794183    -6.01079127     0.01395546     0.73136626     0.52198099
O      -4.04147540     0.14940882   -10.00924067     0.22554264     0.02629314     0.26407507
O      -8.08360158     8.70137558    -6.00415777     1.68055365    -0.35743800     0.05736635
O     -11.55945950     8.54090757    -5.89275741    -0.23218035     1.47170610    -0.24311959
O      -3.93194265     8.69953708    -6.13797295     0.29161326     0.75376195     0.17512943
O      -2.02806673     4.11901434    -4.06078888     0.90380463    -1.28141747     0.20546734
O      -9.66830410     4.65541798    -4.11930802    -1.20271857     0.05530413     0.32943432
O      -5.81366617     4.65597444    -4.13574168    -0.36826312    -0.51419047     0.58558631
O      -5.86473875     4.31615427    -8.03443648     0.58988594     1.41894690     0.53153539
O      -2.08045207     0.10839764    -4.06525927     0.38458202     0.32471810    -0.01964979
O      -6.07829273     8.48041885    -7.86402975     0.61243364    -0.52421731    -1.05342422
O      -9.64311152     8.37602101    -4.02787592    -0.67446041     0.33529536     1.16873823
O      -5.88961110     0.62869632    -8.12403699    -0.25982155    -0.26424624    -0.30871770
