# total energy = -630.35593425 eV

CRYSTAL
PRIMVEC
        0.00279571     0.02951795    -7.98606283
       -7.83802570     0.01298533    -3.99532603
       -3.92160916     8.71933433     0.00634407
PRIMCOORD
56 1
Li     -3.93798971     2.09123274    -1.95424419    -0.29810732    -0.01356718    -0.34819784
Li     -3.93631114     2.06906577    -6.05082002    -0.10005246     0.62595776     0.04908625
Li     -7.79486969     1.90901045    -9.89792140    -0.00602104     0.58328016    -0.57362885
Li     -7.86662236     2.40327724    -5.88483724     0.02876386    -0.00336905    -1.09986422
Li     -3.87417645     6.64635413    -1.89339800    -0.25765698    -0.45204859    -0.11240841
Li     -3.94767669     6.56978027    -5.83703413    -0.11896809    -0.36589466    -0.05891314
Li     -8.00412703     6.49947917    -9.98320074     0.47339058     0.18395949     0.37968668
Li     -7.77040198     6.48608611    -5.75524782    -0.21364567    -0.43540087    -0.53175145
Ti     -1.95851351     2.24143401    -4.19127238    -0.98688679    -0.76558341     0.13926300
Ti     -5.88293913     6.57899519    -7.99614797    -0.66201168    -0.50500071    -0.04823850
Ti     -7.83837090     4.40164309    -7.77006209    -0.25164250     0.60018460    -0.31246545
Ti     -7.85732349     4.32661512    -3.52414183    -0.19288671     0.36993553    -0.93806444
Ti     -3.88677265     4.30489447    -7.69932297    -0.58438209     0.02630806    -0.53293867
Ti     -3.96336601     4.48511493    -3.65303654    -0.44432288    -0.88322191     0.02211563
Ti     -5.64530847     8.70587072    -2.22975444    -1.42597283     0.61904833     0.63509620
Ni     -5.94837912     2.20833584    -8.06407555     1.00110310    -0.22775565    -0.61851127
Ni     -5.91027820     2.29872913    -4.03804207     0.10371856    -0.08177304    -0.05029359
Ni     -9.84959389     6.86241582    -7.98815795     0.23645225    -0.15977084     0.49533656
Ni     -9.90205390     6.43751288    -3.96494657     0.09867403    -0.61936483    -0.00077174
Ni     -1.99088960     2.24022553    -8.08543285    -0.87558852     0.00084680     0.40461630
Ni     -5.88681474     6.62666544    -3.94048749    -0.03517434    -0.16453202    -0.49854917
Ni     -5.81162243     8.66149483    -6.09180861    -0.03691418     0.62583177     0.61718663
Mo     -9.83605259     8.61404799   -10.26032372     0.78694417     0.65812258     0.02281187
Mo     -9.67889387     8.73008192    -6.15764140    -0.89328393    -0.42267966    -1.04903772
O      -2.10891133     1.87399861    -1.93777433     1.09624195    -0.29310230    -0.56334948
O      -2.00556471     1.88128366    -6.12777429     0.69305184    -0.78260354    -0.22885185
O      -5.83239457     6.82371327    -2.08124258    -0.90216642    -1.08228388     0.32925047
O      -5.73831449     6.81458043    -5.89972325    -1.60007128     0.42354060    -0.27797141
O      -5.85489583     2.01447631   -10.02910044    -0.62182431    -0.47608744     0.17349987
O      -5.94290709     1.96263205    -6.14049079    -0.14279093     0.25203589     1.11003013
O      -9.97497576     6.68766468   -10.04649813     0.92883890     0.54394239     0.77489639
O      -9.85803956     6.85175128    -5.91951238     0.73620759    -0.12667155     0.55033753
O      -3.85400008     2.35215913    -4.04920808    -1.47015795     0.59915931     0.39469412
O      -3.99180693     2.38025687    -8.07607191     0.09270551     0.37893999     0.64844314
O      -7.99877909     2.51702554    -4.15664765     0.93513298    -0.58932393     1.83380166
O      -7.81903083     2.38413721    -8.05043399    -0.78447702     0.05001574     0.52739413
O      -3.92943482     6.46122162    -3.83047524     0.13850057    -0.46373716    -1.11071150
O      -3.99580593     6.32381853    -7.95484246     1.04552636     0.28320379     0.24993793
O      -7.95804631     6.26197065    -3.90543844     0.45203907    -0.05435418     0.10808504
O      -7.89334958     6.48197291    -8.03347103    -0.30180167    -0.86064973     0.66951956
O      -3.83025709     4.57879335    -1.90958209    -0.40732050    -0.68985640    -1.17325160
O      -3.84058671     4.29070120    -5.96750551    -0.29881432     0.46946562     0.61026674
O      -7.82982123     4.36365331    -9.74035542    -0.50559854     0.31237781    -2.28675135
O      -7.92131480     4.41361982    -6.06001346    -0.05274680     0.23629151     1.17838791
O      -8.02197228     8.57141051    -2.17263423    -1.08962417    -0.06841114     0.39724729
O      -4.02594155     0.09059703    -5.94648007     0.68526904    -0.65657010    -0.13811306
O     -11.72950711     8.69065792    -5.98655764     1.68412763     0.43545092    -0.07908642
O      -7.79621161     0.05996093   -10.01990719     0.82100915    -0.71934525    -0.14576005
O      -2.07087951     4.03329970    -3.99431763     1.04996900     1.68935428     0.12564739
O      -1.98851574     4.36970368    -0.04546864     0.70787382    -0.03680381     0.40476565
O      -5.96845922     4.20321012    -4.01509997     1.01121254    -0.07753332     0.43696435
O      -5.92813412     4.56057000    -7.96410058     0.67619625    -0.20311157     0.02317884
O      -1.94442346     0.22174426    -4.07011472     0.07922722     0.02965560    -0.11056155
O      -5.93844038     8.37081927    -8.10400724     0.07795764     1.65856212     0.80710958
O      -5.98068623     0.39134879    -4.04460085    -0.01601847     0.56768364    -1.22076932
O      -5.85723051     0.28756172    -8.05197035    -0.19023899     0.09533782     0.05699889
