# total energy = -630.61802441 eV

CRYSTAL
PRIMVEC
        0.00279571     0.02951795    -7.98606283
       -7.83802570     0.01298533    -3.99532603
       -3.92160916     8.71933433     0.00634407
PRIMCOORD
56 1
Li     -3.98979847     2.27004694    -1.91739311     0.03474407     0.02229566     0.26629307
Li     -4.01985102     1.96277049    -6.01441711     0.41743163    -0.06789448     0.21537689
Li     -7.94348018     2.25459915    -9.86058124     0.47165409     0.21946886    -1.06590929
Li     -7.82595729     2.00828531    -5.84669878     0.24445044    -0.06500295    -0.24674750
Li     -3.99572469     6.38222031    -1.94777889     0.41132420    -0.05472547    -0.09390248
Li     -3.83298982     6.54897823    -5.85855813    -0.30597721    -0.13595576    -0.39822772
Li     -7.92847838     6.61517553    -9.94181904     0.33641227    -0.25533888     0.05618462
Li     -7.68929486     6.56944992    -5.99611714    -0.71049331    -0.38981606     0.65253944
Ti     -2.02787642     2.32196753    -4.09022361    -0.13975233    -0.21647391    -0.12254382
Ti     -5.89430579     6.78830799    -7.89941933     0.55411169    -0.15187471    -1.13079728
Ti     -7.76321777     4.28374843    -7.70146949     0.15981712     1.98015811     0.38406258
Ti     -7.88544287     4.44426072    -3.71488229     0.32519826     0.12760361    -1.38455439
Ti     -3.77687352     4.30871077    -7.59945736    -1.34113782    -0.12679104    -1.72844724
Ti     -4.02145965     4.27933602    -3.76564823    -0.06021169     2.20475818    -0.40597621
Ti     -2.16692990     0.09545944    -2.19231747    -0.33140032    -2.75248510     0.95793228
Ni     -5.87450167     2.33315807    -7.93705170     0.28469751    -1.24029296     0.07539888
Ni     -5.92874414     2.33278196    -4.02969001    -0.35123751    -0.47007094     0.09560769
Ni     -9.81973416     6.44859837    -7.89762996    -0.14347041     0.11840109    -0.49787156
Ni     -9.73635187     6.54802239    -4.02887715    -0.14958628    -0.45764990    -0.24924287
Ni     -2.05481601     2.06187501    -7.99561274     1.86487300     0.25948071     0.61667662
Ni     -5.80261591     6.56878307    -3.89325024    -0.64955957     0.21343466    -0.26341508
Ni     -5.89225037     8.72694113    -6.02352385    -0.28755356     1.79014837     1.34697623
Mo     -5.99075146     0.11244785   -10.31825015     1.30467836    -0.87371275    -0.86062941
Mo     -9.71956074     8.53249261    -6.41540481    -1.64913281    -0.71003014     1.13512344
O      -1.94494597     1.88426056    -1.96597190    -0.07132190     1.67807267     0.07345380
O      -2.03663576     1.92454551    -6.01233237     0.48376756    -0.52755114    -0.04921973
O      -5.85627715     6.80523087    -1.92848302    -0.54005695     0.94112235    -0.34019461
O      -5.84576503     6.95936326    -5.86915106     0.11039342    -1.17149682    -0.94625377
O      -5.93390257     2.00962822   -10.05694319    -0.22669358     0.14577722    -0.30554403
O      -5.82616087     1.89724602    -5.92655575    -0.81733133     0.28916628     0.00000569
O      -9.80543277     6.89691400    -9.77778648     0.20691477     1.14382510    -0.20077261
O      -9.67284925     6.57084899    -6.02230162    -0.65807209     1.86279423    -0.22988436
O      -3.98230050     2.36263390    -4.00597392     0.10243236    -0.18475744    -0.01391052
O      -3.83757507     2.30255473    -7.89779860    -1.17260332     1.45991938    -0.23376827
O      -7.92426344     2.52294120    -4.03181469     0.58543731    -0.62737159     0.39159637
O      -7.96259222     2.42380395    -8.00126592     0.60736843    -1.02924383     0.30317631
O      -3.91116680     6.31867037    -4.05277100     0.88707507    -0.06511717     1.46066757
O      -4.03185550     6.29339176    -8.03079095    -0.14399456     0.18401274     0.92241331
O      -7.76626261     6.44387960    -4.02147252    -0.31588691    -0.44242798     0.67361757
O      -7.86401541     6.28987713    -8.02224603     1.14823185     0.26427137     0.71740974
O      -3.84898287     4.36001050    -2.03990633    -0.02940442    -0.30172520     0.68127944
O      -3.85754541     4.56634561    -5.90867712    -0.15254383    -0.56400318     0.98705793
O      -7.77704296     4.46565992    -9.98420396    -0.38968164    -0.18388513     1.36506137
O      -7.96368529     4.54358165    -5.98106527     0.71965605    -0.58078866    -0.44796853
O      -4.03992827     0.17191813    -9.96604025     0.31152869    -0.37637034    -0.28228781
O      -7.91997045     8.73855771    -6.13348874     0.16371275    -0.58062916    -0.06494587
O     -11.55933404     8.67915496    -6.22802239     0.18273807    -0.30481176     0.97803458
O     -11.65578667     8.72808759   -10.12280189    -0.74364624     0.53017519     0.17555507
O      -1.94924691     4.22080160    -4.03861685    -0.37283025    -1.33603306    -0.24113790
O      -9.83492821     4.70333306   -11.92726526     1.55290421     0.23574346    -0.18340526
O      -5.86395496     4.65347349    -3.94835070    -1.02014386    -0.61928346    -0.46766969
O      -5.80402219     4.12212832    -7.96585250    -0.40591870     1.25634328     0.30670585
O      -2.10195355     0.20602139    -3.97686732     0.52162118     0.26216219    -1.46079595
O      -5.83698568     8.60114599    -7.95877862     0.05532926    -0.41341152    -0.65477727
O      -9.66123885     8.38549992    -4.15889469    -0.73945353     0.48202164     1.59778533
O      -5.91238733     0.50426274    -8.07983863     0.22254561     0.11957863    -1.77886710
