# total energy = -631.05983133 eV

CRYSTAL
PRIMVEC
        0.00279571     0.02951795    -7.98606283
       -7.83802570     0.01298533    -3.99532603
       -3.92160916     8.71933433     0.00634407
PRIMCOORD
56 1
Li     -3.85047611     2.21332183    -2.04522276    -0.35214702     0.24388056     0.63435797
Li     -3.97485403     1.95785749    -6.11477139     0.10254937     0.01289020     0.79774007
Li     -7.81824619     2.54337008    -9.96946559     0.11835050    -0.92552173    -0.19289518
Li     -8.00687519     2.44325872    -5.82893646     0.44560551    -0.91541686    -0.20558111
Li     -3.77986638     6.39744227    -1.87796747    -0.58557961     0.14075112    -0.36417275
Li     -3.93939710     6.49795308    -5.74468254     0.28158770    -0.03793921    -0.71754896
Li     -7.88288960     6.44325654    -9.95133826     0.20636591    -0.23151209     0.05109928
Li     -7.88161890     6.88818531    -5.87839105     0.11259441    -0.35750641    -0.40627018
Ti     -2.01653760     2.22994581    -4.07499829    -0.28082531     0.01670565     0.63806392
Ti     -5.82104960     6.62297665    -7.92121068     0.48886861     0.03799901    -0.09269710
Ti     -7.74251174     4.33236227    -7.64431015    -0.24486996     1.28619528    -1.23369050
Ti     -7.84692426     4.40734706    -3.83544097     0.46727937     0.09093617    -0.33281555
Ti     -3.77739116     4.32434422    -7.69571618    -0.57258727    -0.12898380     1.44798308
Ti     -3.97998448     4.51287341    -3.72712854     0.38322267    -1.46584711    -0.18201823
Ti     -6.11684469     8.68818271    -2.14418165     1.35221025     0.58884610     0.87925231
Ni     -5.92807950     2.33208279    -8.03720124     1.41851339     0.75734718    -0.06696719
Ni     -5.86085807     2.22087567    -3.98639017     0.54389210    -0.23728936    -0.55344556
Ni     -9.75883993     6.64567493    -7.95356770     0.07097138    -0.32407344     0.90793418
Ni     -9.80305035     6.40847758    -4.11253822     0.09969989     0.53192144    -0.06185477
Ni     -1.89971716     2.20118679    -7.89595986    -0.21672336    -0.66404385    -0.29847955
Ni     -5.87907024     6.60579549    -3.96590814    -0.37919597    -0.30602122    -0.62723508
Ni     -5.93045447     8.64912694    -5.91991621     0.27729849     1.47860660    -1.03619714
Mo     -9.89187232     8.69488163   -10.26934427    -0.94004909     0.47715675    -0.29605340
Mo     -5.99728271     0.05145043    -6.40074108     0.97900641     0.03872707     0.71865972
O      -1.99440502     1.95249640    -1.98733864     0.52411812    -1.06965703     0.07965071
O      -1.93265975     1.88347031    -5.93283672     0.03195594    -1.31356866    -1.57491376
O      -5.89539548     6.79740911    -2.07177401    -0.01229539    -0.75902485     0.61057021
O      -5.90801004     6.80836377    -5.92485922     0.18772431     0.48463966    -0.01729984
O      -5.78308940     1.94919430   -10.15490433    -0.53274927    -0.17339467     0.60683089
O      -5.91970764     1.91857392    -5.82142046    -0.07109753     0.10737529    -0.47465779
O      -9.72661519     6.81144818    -9.78328148    -0.04727778     0.82648591    -0.00562020
O      -9.79728196     6.83219724    -6.08396530     0.12773243    -0.14482248    -0.01194374
O      -3.94073909     2.43331282    -4.06055812    -0.39363980    -0.01075478     0.33385091
O      -3.87002954     2.33059426    -7.91996844    -0.08995313     1.65188349    -0.24842904
O      -7.71072338     2.39952332    -3.97130258    -1.27045721     0.46925853     0.20300691
O      -7.83404356     2.44041101    -8.03579202     0.50691186    -0.22475551     0.28853238
O      -3.84150565     6.42313337    -3.87745874     0.38754105     0.22156122    -0.14882731
O      -3.87208295     6.40355366    -7.98879344    -0.61519011    -0.86695604     0.29845903
O      -7.91473292     6.38471728    -4.11788652     0.36571485    -0.69513490     1.08516100
O      -7.80143881     6.29897467    -7.89428751    -0.29009038    -0.11956713    -0.48111468
O      -3.73858083     4.38054954    -1.96853511    -0.95495863     0.16606637    -0.59508380
O      -3.74346700     4.56393974    -5.90483569     0.08970728    -0.45369642    -1.21231294
O      -7.93536012     4.31598005   -10.07455335     0.12691932     1.17953430     0.86520032
O      -8.04448962     4.27902568    -5.96190022     0.45444090     0.05588560     0.75314433
O      -3.94214106     0.08321387    -9.92525970    -1.47203279    -0.36761988    -0.39965050
O      -4.13070429     0.02359594    -6.06696811     0.20895563     0.08797276    -0.06441037
O     -11.64087019     8.72951285    -6.00590960    -0.62240818    -0.11249329    -0.09268276
O     -11.65815310     8.63634230   -10.08793907     0.37725318     0.36304484     0.19081714
O      -1.96581342     4.01686000    -3.94885003     0.37565824     1.22385163    -0.39111732
O      -9.79496913     4.52382719    -4.12128179     0.64395050     0.14140569     0.33255075
O      -5.87889275     4.64888434    -4.12068704    -0.02060947     0.12151118     0.60780713
O      -5.74855300     4.52508505    -7.83815984    -1.48547412    -1.31814120    -0.50298496
O      -1.98714702     0.04552388    -4.02928095     0.01119741     0.12260818     0.43025305
O      -5.83086715     8.41177879    -8.05770228    -0.18205634     0.76290743     0.51657102
O      -9.78115544     8.29979861    -4.02267966     0.22173707     0.12495656    -0.14107839
O      -5.92196961     0.51934321    -8.17218584    -0.30717160    -0.05176679    -0.07479002
