# total energy = -630.74586361 eV

CRYSTAL
PRIMVEC
        0.00279571     0.02951795    -7.98606283
       -7.83802570     0.01298533    -3.99532603
       -3.92160916     8.71933433     0.00634407
PRIMCOORD
56 1
Li     -4.02357585     2.11978154    -2.02286014     0.18650518     0.46928655     0.15036464
Li     -3.92011603     2.15973209    -5.98028607    -0.39861742     0.33611064    -0.17158363
Li     -7.96664784     2.60761254    -9.94611462     0.47604516    -0.53238029     0.03264152
Li     -7.87771403     2.28265214    -5.82236249     0.31965550    -0.13015427    -0.24015576
Li     -3.75229113     6.56228930    -1.96763680    -0.60021084     0.03904487     0.09050124
Li     -3.83265089     6.35076356    -6.06445721    -0.15158773     0.00541675     0.67413422
Li     -7.84282226     6.53499906    -9.99084619     0.03312756    -0.28805081     0.10133736
Li     -7.87621140     6.66713715    -5.78133948     0.66741735    -0.06078666    -0.05590300
Ti     -1.99670101     2.27496968    -3.94399244    -0.41692500     0.60767971    -0.17365077
Ti     -5.88750336     6.60030082    -8.03402855     1.02993452     0.79442594     0.47417284
Ti     -7.80375487     4.41824539    -7.65062642    -0.50096849    -1.02816688     0.51638714
Ti     -7.88765804     4.50716442    -3.76772723     0.23072772    -0.14090917     1.15513737
Ti     -3.86320068     4.31678082    -7.82118248    -0.35499919    -0.82613095     1.39564921
Ti     -4.08714918     4.49545223    -3.73913558     0.58382614    -1.05051943     0.34313919
Ti     -6.16210247     8.71971797    -2.03356502     0.61161405     0.07846645    -1.13693880
Ni     -5.86589395     2.35132003    -8.13485631    -0.59616822    -0.42539322     0.20532887
Ni     -5.94475818     2.16930680    -4.01568111     1.00482381     0.08347975    -0.41461609
Ni     -9.65173273     6.49744838    -7.84847487    -1.48013233     0.48439769    -1.19430602
Ni     -9.80232181     6.43218729    -4.05914017    -0.78722349    -0.27832322    -0.19007131
Ni     -1.84820935     2.07743281    -7.87083864    -0.79389485     0.41965772    -0.55110760
Ni     -5.66018539     6.66820133    -3.99986279    -1.30643412     0.54072953    -0.56830967
Ni     -5.88995398     8.71090473    -6.10078140    -0.35170629    -0.69083941     1.50882857
Mo     -9.98247145     8.71663092   -10.22629864    -0.77057070     0.72235439    -0.94155529
Mo     -9.80085066     8.73455707    -6.35244951    -1.21020676     0.15670409    -0.96826117
O      -2.01425609     1.87919149    -1.94072187     0.71183557     0.52672592    -0.55588774
O      -2.07057636     1.85413796    -5.95409200     1.20307016    -0.47623872    -0.53036668
O      -5.74087340     6.84368535    -2.07809454    -0.67332872    -0.49860153     0.84233017
O      -5.82830136     6.79652904    -6.03769837    -0.09449073     0.66171309    -0.26295174
O      -5.93435778     2.01319526   -10.17539017    -0.20841734    -0.73337550     0.68249343
O      -5.83416312     1.93197142    -5.89431673    -0.36095841    -0.47850223     0.04655660
O      -9.64630856     6.97812190    -9.64709972    -0.83650891    -0.19175014    -0.29698555
O      -9.72224731     6.67960388    -6.08985359    -0.24708836     0.94714479     1.58425842
O      -3.92900158     2.44757845    -4.06684445    -0.05532211    -0.21297481     1.01032330
O      -3.96580951     2.38265709    -8.09758639     0.63914228     0.11726507     0.74298346
O      -7.74154982     2.51132549    -3.92014502    -1.32691038    -0.53507700    -0.14319876
O      -7.91089251     2.45469334    -7.86072651     0.45943366     0.06680543    -0.80115313
O      -3.68746253     6.38712039    -3.96549273    -0.07675314    -0.47729870     0.02321168
O      -3.95289557     6.34163523    -8.02881282     0.10569734    -0.62741080     0.26204681
O      -7.95500927     6.43249257    -3.88457769     0.29284086    -0.24840611    -0.49705931
O      -7.81362520     6.34576667    -7.96872236     1.27927711     0.10911635     0.19970097
O      -4.01566260     4.27257788    -1.96465646     0.23694884     0.40437370    -1.37800952
O      -3.96425315     4.27450165    -5.98713637     0.21508848     0.55364981    -1.46089400
O      -7.80267801     4.44159340    -9.94033225    -0.59485742     0.33421298    -0.86940675
O      -7.83124632     4.39452310    -5.87326065     0.17189505     0.06280952    -1.25541656
O      -4.02349292     0.12269628    -2.07045938     0.22594334    -0.36254264    -0.04519056
O      -8.02993554     8.64404147    -5.98553359     0.93620809     0.19304524    -0.20361848
O      -7.64357694     0.03887686    -5.88314553     0.65959847    -0.45209066    -0.59525787
O      -3.91555490     8.66814198    -6.13032992     0.41783148     0.20341198    -0.06480251
O      -1.97244557     4.22178984    -3.91142982     0.39594601    -1.24685211    -0.38815477
O      -9.83422096     4.47448400    -4.03290817     0.85498500     0.70255968    -0.13285041
O      -5.93174124     4.73753993    -4.06579264     0.62823402     0.79484623     0.17860316
O      -5.88292627     4.23887551    -8.18841279    -0.44256310     1.25817010     1.09560070
O      -5.73932161     8.69587684    -4.02876797    -0.36191984     0.24275135     0.86002755
O      -5.88345827     8.49903761    -8.05357431    -0.34875955    -0.53904471    -0.11906782
O      -9.85426531     8.28781767    -4.02313779     0.53152633     0.25898614     0.38132103
O      -5.98162078     0.51744965    -8.21132589     0.39313172     0.22313757     1.51521927
