# total energy = -630.82963062 eV

CRYSTAL
PRIMVEC
        0.00279571     0.02951795    -7.98606283
       -7.83802570     0.01298533    -3.99532603
       -3.92160916     8.71933433     0.00634407
PRIMCOORD
56 1
Li     -3.98748008     2.32958828    -1.85138014     0.12196842    -0.56436563    -0.73342078
Li     -3.97296587     1.75403233    -5.98898193    -0.16116187     0.99997624    -0.17169407
Li     -7.96457904     2.09531804   -10.08603563     0.39356259     0.11367837     0.15802099
Li     -7.90398642     2.33377043    -6.06602460     0.38548998    -0.28947663     0.76034596
Li     -3.92790759     6.31813750    -1.92228805     0.06220394     0.18546772    -0.04709704
Li     -3.89207064     6.52300039    -5.82098617     0.12759766    -0.12670194    -0.34772135
Li     -7.73114464     6.48197453    -9.86818185    -0.65999829    -0.00322558    -0.12022395
Li     -7.84243464     6.61470638    -5.86138675     0.02987417    -0.14445989    -0.20589821
Ti     -2.03818327     2.24255908    -4.00763699    -0.32057076    -1.12572404    -0.33324340
Ti     -5.81995285     6.74789926    -7.80947452    -1.31178252    -0.32335488    -1.51482758
Ti     -7.81733814     4.40563423    -7.75314152    -0.36648069     0.02381008    -1.16923962
Ti     -7.81340897     4.39172462    -3.72416052    -1.35680100    -0.67054170     1.45752197
Ti     -3.89410059     4.34642022    -7.82916049     0.60830174    -0.40657421     1.42595311
Ti     -3.95375235     4.41231962    -3.77792164    -0.25867642    -0.98129257    -0.82474546
Ti     -5.73313004     8.65669276    -2.05756416    -0.96322137     0.42460108    -1.15712399
Ni     -5.94713074     2.44324441    -8.07311974    -0.27183902    -0.64447081    -0.32335760
Ni     -5.86480880     2.31591393    -4.03514517    -1.08782406    -1.54917639    -0.49683347
Ni     -9.78999798     6.63076571    -7.92282142     0.43989098    -0.71163646     0.38623252
Ni     -9.77858058     6.50544190    -3.99501331    -0.43202146    -0.64616978    -0.01802776
Ni     -2.00852082     2.19174812    -7.99833246    -0.02907634     0.06314675    -0.14637472
Ni     -5.90462914     6.45118744    -3.96138321     0.00652221     0.60383181     0.28717905
Ni     -5.90917623     8.71440170    -6.03856308     0.23163425     0.83737709     1.13677828
Mo     -9.80627088     8.72862139   -10.19008573     2.01314277     0.33898253     0.96239175
Mo     -9.83181855     8.66200055    -6.39407667    -0.11970325     1.04664550     1.83667764
O      -1.98485640     1.88691518    -1.99454426     0.09714349     0.58347944    -0.11689011
O      -2.10254893     1.80407408    -6.07417360     0.63850346     0.18657704     0.18369350
O      -5.87881448     6.72909225    -1.93047296     0.19745125     0.30546765    -0.66169945
O      -5.84885971     6.91081858    -5.94547368     0.01782942    -1.20120565     1.27601925
O      -5.87653816     2.07343890   -10.16673026    -0.16483829     0.04194002     0.88030362
O      -5.89681521     1.88384509    -5.91804234    -0.08626212     0.42291105    -0.01841149
O      -9.75694553     6.83084833    -9.79966721    -0.12124822     0.13903630    -0.07598932
O      -9.75156293     6.81489836    -5.98045762    -1.18252872    -0.98124639    -0.08897255
O      -3.99950730     2.20721746    -4.02230444     1.55660740     1.62790396     0.12100239
O      -4.03432323     2.41317438    -8.00306125     0.73890765     0.38248926     0.17533278
O      -7.92996411     2.33882066    -4.00739947     0.13975662     1.23919060     0.14434231
O      -7.88194376     2.40491994    -8.15318683    -0.21240934     0.62793821     1.07494764
O      -3.83440959     6.28793752    -3.93664659    -0.30637399     0.60027988     0.03608911
O      -4.01477543     6.37244590    -7.96826215     1.52510339    -0.06736404     0.15311965
O      -7.90466387     6.36768517    -3.99444649     0.87787939    -0.52864264     0.34788395
O      -7.79417836     6.35860941    -7.88329924    -0.43270165     0.08403534    -0.00366619
O      -3.83305383     4.34567584    -2.02888576    -0.40098356    -0.11520374    -0.04426969
O      -3.97655723     4.34447263    -6.07876259     0.25338149     0.53876679     0.38605133
O      -7.94158467     4.43910657    -9.89383752     0.13638741     0.07158246    -2.28932730
O      -7.90931389     4.28810952    -6.02164149     0.07628637     0.07472007     0.50416250
O      -3.98379041     0.10623178    -9.97956594    -0.65935655    -0.60155864     0.43318520
O      -8.05584607     8.61601840    -6.14094727     0.78302766     0.23362014     0.29761590
O      -7.74349023     0.03655264    -5.89874919    -0.14777247    -0.73787898    -0.30401123
O      -7.66791455     0.06108496    -9.95472841    -0.87761678    -0.29529709    -0.12517399
O      -2.01027198     4.11891461    -4.12507821    -0.37101328    -0.21487778     0.44186244
O      -9.75739567     4.48623116    -4.17029049    -0.78422076     0.40746446     0.73823987
O      -5.92851579     4.25857933    -4.03595001     1.10829108     0.38535931    -0.05788402
O      -5.92651979     4.35885648    -8.06910157     0.74299939    -0.05645886     0.02985196
O      -1.82109845     0.18370826    -3.92636963    -0.38777541    -0.04927260    -0.45640029
O      -5.94547523     8.55425263    -7.99365645     0.31818315     0.01990815     0.07502841
O      -5.83097559     0.05900839    -3.94136983    -0.20277189    -0.22055809    -2.12683292
O      -5.98524116     0.59960444    -8.05234689     0.07079347     0.39864971    -1.75424752
