# total energy = -630.53726458 eV

CRYSTAL
PRIMVEC
        0.00279571     0.02951795    -7.98606283
       -7.83802570     0.01298533    -3.99532603
       -3.92160916     8.71933433     0.00634407
PRIMCOORD
56 1
Li     -3.89989215     1.99614242    -1.89669108     0.07687972    -0.01268082     0.03841680
Li     -3.89000147     2.40325969    -5.86598675    -0.33131670     0.30097053    -1.03610019
Li     -7.88243012     2.51547791    -9.84503978     0.33131697    -0.34149844    -0.74539609
Li     -7.91430006     2.16996230    -5.77205371     0.83485619     0.40372627    -0.32657748
Li     -3.90947599     6.25411929    -1.81142718    -0.33099624     0.57559595    -1.27631574
Li     -3.95761294     6.24535567    -5.85460133     0.20832307     0.89868969    -0.18413605
Li     -7.98043989     6.64669668    -9.92146236     0.72408650    -0.13544311    -0.19320913
Li     -7.83932601     6.56128639    -5.81153134    -0.04082754    -0.27123365    -0.23478850
Ti     -1.98590365     2.04753874    -4.08992649     0.06956407     1.49045127     0.71940124
Ti     -5.98829244     6.71824150    -7.85473860    -0.34034072     0.53372850    -1.01474999
Ti     -8.01142796     4.40362828    -7.65892476     0.08649752    -0.48008786    -0.67028331
Ti     -8.00968641     4.36200464    -3.67079037     0.89009452     1.01854181     0.12932082
Ti     -3.95583764     4.41426781    -7.82053501    -0.63539770    -1.63279454     1.27460273
Ti     -3.97668956     4.38900721    -3.73569426    -0.10178017     0.37041867    -0.76739097
Ti     -5.50632158     8.67377927    -2.16218404    -2.41136648    -1.20434148     0.22504191
Ni     -5.90227805     2.32526327    -8.10039435    -0.18754320     1.13240866     0.73871348
Ni     -5.90065658     2.45411659    -3.85168594    -0.08018913    -0.73498820    -1.00278117
Ni     -9.94307431     6.62069619    -7.95257607     0.68003543     0.42710418     0.49528514
Ni     -9.79546190     6.44650047    -4.14724577    -0.51764571     0.15370957     0.89573642
Ni     -1.97072541     2.05623732    -8.02036651    -0.38331454    -0.06491995     0.90185020
Ni     -5.92800350     6.41165344    -3.99092738    -0.38604203     0.75333826     0.66173336
Ni     -1.89362446     0.03607917    -6.03869040     0.08086284    -1.11366960     0.06994818
Mo     -9.87366139     8.72860979   -10.35454486     1.44834961     0.13662609     0.15495002
Mo     -5.68249160     0.04495985    -6.26631482     0.95381646     0.88742060    -1.27451401
O      -1.90765915     1.87003813    -1.97048264    -0.70436804    -0.39373993    -0.10299294
O      -1.98581195     1.89455078    -6.02861245    -0.07485368    -0.12453097    -0.66684756
O      -6.00623654     6.74701205    -2.12987294     1.00072806     1.19983369     0.81317614
O      -5.87722731     6.79771887    -5.95616000     0.04759573     0.49284302     0.11121497
O      -5.83074354     1.96899203   -10.04651721    -0.57197471     0.47817866     0.09303889
O      -5.82158649     1.90864706    -5.78021335    -0.14900076    -1.05278479     0.04116974
O      -9.80815182     6.89665419    -9.80481829    -1.34653295    -0.06000680     0.17073477
O      -9.87894359     6.84130124    -6.04917895     0.45167189    -0.19694729    -0.59340204
O      -3.97067828     2.47776429    -4.02498136    -0.15860528    -1.18592445     0.69092525
O      -3.97231388     2.44305145    -7.92339881     0.50536878     0.18857659    -0.58187594
O      -7.83441846     2.49271692    -3.86074241     0.04618008    -1.02323568    -0.38697503
O      -7.96573490     2.34259843    -8.02074935     1.07220491     1.15173604     0.59694818
O      -3.97282117     6.36661119    -3.92518113     0.25277972    -0.12492011    -0.25099482
O      -4.13763521     6.35824416    -8.03734100     0.86633536    -0.10961628     0.67628237
O      -7.93921775     6.31908071    -3.93091907     0.92702006     0.28078051    -0.61154054
O      -7.90258883     6.36217815    -7.96949328    -0.35049745    -0.17682826     0.77032674
O      -3.86377985     4.44143202    -2.01206413     0.23510448    -0.44852164     1.91549978
O      -3.73333670     4.47481059    -6.03298245    -0.55000674    -0.48772858    -0.43621126
O      -7.75514531     4.50400588    -9.91381703    -0.50425105    -0.56276985     0.46773228
O      -7.90338067     4.40480064    -5.91670199     0.16137955     0.03133198    -0.04576345
O      -8.01104838     8.74329809   -10.04656763    -0.96445345     0.44943625    -0.23357796
O      -7.78304883     8.62646388    -6.12884478    -1.63046203     0.32545803     0.29113256
O      -7.68256954     0.09557947    -6.02773286     0.87733516    -0.23121474     0.47680378
O      -7.78238192     0.11156000   -10.21932656     0.59250798    -0.09876234     0.21089725
O      -2.05511607     4.08998773    -3.98217617     1.25509675    -0.34978622    -0.14096853
O      -9.82962436     4.59031562    -3.99054333    -0.79843170     0.09488980    -0.50774277
O      -5.89743357     4.51989094    -3.92251684    -0.44943437    -0.55706637    -0.60840827
O      -5.97572372     4.24508042    -7.85134106     0.62457478     0.09792206    -0.42653037
O      -1.69290445     0.18124993    -4.08660735    -0.94448674    -0.26002425     0.83384104
O      -5.93477703     8.54570208    -8.00281508     0.21672440    -0.58318662    -1.28713948
O      -9.68551017     8.31525883    -4.15932331    -0.56658732     0.27131884     0.00346603
O      -5.90942808     0.49367631    -8.08150700     0.02939600    -0.26503434     1.00522021
