# total energy = -630.52564276 eV

CRYSTAL
PRIMVEC
        0.00279571     0.02951795    -7.98606283
       -7.83802570     0.01298533    -3.99532603
       -3.92160916     8.71933433     0.00634407
PRIMCOORD
56 1
Li     -3.89603097     2.30452221    -1.97278592    -0.29276727    -0.05314196    -0.43239492
Li     -4.00198456     2.33456932    -5.96375390     0.13759598    -0.30258573    -0.44660983
Li     -7.80997901     2.38246272    -9.78122395     0.34662218    -0.28142728    -1.09038141
Li     -7.82054013     2.12773438    -5.99050961     0.26399318     0.07904270     0.41482287
Li     -4.08599275     6.60601767    -1.96298377     0.38603528    -0.47958466    -0.02678221
Li     -3.85600867     6.28534538    -5.88559336    -0.33472820     0.28977396    -0.47343198
Li     -7.96711786     6.32007160    -9.92367762     0.15128761     0.33320514     0.02908878
Li     -7.72700116     6.58818128    -5.92114394    -0.79539487    -0.08786336     0.72159404
Ti     -2.01688228     2.18486569    -4.13831593    -0.08358758    -0.21852973     0.10363527
Ti     -6.01939346     6.57844910    -7.91568107     0.98525004     0.30822876    -0.74764491
Ti     -7.84844102     4.33803144    -7.67966928    -0.63022533     0.13867755     0.45515069
Ti     -7.77082257     4.38484704    -3.73225007    -0.59737400    -0.00625229     0.35234768
Ti     -3.76430988     4.39676051    -7.84317544    -0.79525721     0.09329104    -0.82479401
Ti     -4.14059424     4.37755205    -3.82616432     0.76802593     0.30576128     0.50985889
Ti     -5.84831443     8.69330034    -2.01813968     0.30770652    -0.04895074    -0.36614702
Ni     -5.86342144     2.50014506    -7.90179903     0.66830266    -1.41633947    -1.36470847
Ni     -5.90252815     2.09839166    -3.91050730    -0.33887539    -0.20629109    -0.69775502
Ni     -9.84890051     6.52328833    -7.88231246    -0.87899853     0.09732765    -0.59297182
Ni     -9.92854175     6.42837104    -3.90085316     1.46199319     1.43410956    -0.76355127
Ni     -1.95220003     2.14783496    -8.10969777     0.42701772     0.31080758     1.52220854
Ni     -5.92712806     6.71945708    -4.04359088    -0.17598661    -0.04047728     0.71122368
Ni     -5.72244738     8.70213666    -6.11024023    -0.70591090     2.19062095     0.99360650
Mo     -5.82354830     0.04052816   -10.26977920    -1.20545250     1.03733300     1.09689561
Mo     -9.76253166     8.62253430    -6.35315817     1.11284869     1.36737629    -0.35204879
O      -1.91460003     1.90272782    -1.95797999    -0.15252857    -0.17908698    -0.72805450
O      -1.94264823     1.92052044    -6.06325219     0.12800301    -0.69948116    -0.10116510
O      -6.03885904     6.76645187    -1.89952042     0.37339052     0.11636434    -0.77621176
O      -5.80214799     6.94112834    -5.95050331    -0.28487749    -1.09935053    -0.64606004
O      -5.90006531     2.04389859   -10.01233796     0.45533184    -0.34745187    -0.96850555
O      -5.85550340     1.86838131    -5.78972945    -0.68405701    -0.00367505    -0.31620330
O      -9.86107574     6.88442034    -9.77276767     0.79477983    -0.04921561     0.10773728
O      -9.98137108     6.77109076    -6.04514466     1.08450147    -0.42579646     0.50699946
O      -3.95150535     2.41749412    -4.02465327     0.05512261    -0.74746648     0.25584913
O      -3.83182208     2.51126836    -8.18007851    -0.73550374    -0.47804431     1.32425560
O      -7.86650362     2.47633123    -4.05120039     0.16118896    -0.31451988     0.50354561
O      -7.76517431     2.41264470    -7.92616781    -0.80184262     0.44776147     0.31668938
O      -3.89146309     6.28882363    -4.07915284     0.50228217     0.47195900     1.06984284
O      -4.04414100     6.34997363    -7.86033413     0.17960758     0.26539668    -0.83122032
O      -7.97951925     6.40823191    -3.97060298    -0.07669330    -0.55947767     0.26352712
O      -7.97542577     6.42125429    -7.84528014     0.91633996    -0.94251199    -0.17578320
O      -3.99194815     4.35425133    -2.08268315     0.06518437     0.22582284     0.00924006
O      -3.84721868     4.26648753    -6.10966558    -0.33934860     0.05254863     1.71286232
O      -7.70707936     4.39126199    -9.90782637    -0.88958791     0.12569941    -0.93962269
O      -7.90180146     4.38562464    -5.91776247     0.48701095     0.23680941    -1.21834623
O      -3.97138021     0.09957634    -9.99568044    -1.06224853     0.02596957    -0.23345580
O      -7.96600999     8.71555476    -6.02090949    -1.10672408    -0.64614377    -0.53789477
O     -11.68490369     8.57804169    -5.99087841    -0.95069607     0.90784674     0.04595838
O      -7.72324239     0.13887221   -10.01272768     1.16508019    -0.20824203    -0.65552679
O      -1.97814888     4.04694584    -3.99269466     0.14559152     0.14839315    -0.35249089
O      -9.75238635     4.58933635    -4.04791481     0.17230780    -0.11350452     0.09719807
O      -5.95578709     4.85901713    -4.10509847     0.25788672    -0.09188550    -0.25792312
O      -5.88331715     4.48867285    -8.10816266    -0.48936322    -0.35142429     1.24541206
O      -1.93454787     0.14937834    -4.00472761    -0.10292092    -0.36833579     0.51947196
O      -6.11288244     8.47672162    -8.05353081     0.87854588     0.00446531     0.38373568
O      -9.70153616     8.50997688    -4.06271259    -0.72156599    -0.50045803     0.09852338
O      -5.94167432     0.61103469    -8.09355387     0.43389181    -0.10233014     1.57902814
