# total energy = -630.79885765 eV

CRYSTAL
PRIMVEC
        0.00285542     0.02004370    -7.95977623
       -7.82940539     0.00763210    -3.98158109
       -3.91729101     8.74642787     0.01461334
PRIMCOORD
56 1
Li     -3.76875288     2.17716061    -1.86486894    -0.99851996     0.19970009    -0.17646638
Li     -4.09612332     2.41106739    -5.97304438     0.55108453    -0.41102021     0.47854021
Li     -7.87615286     2.35152739    -9.88249927     0.16316036    -0.17911829    -0.14276541
Li     -7.97843297     2.32245788    -5.92532226     0.58716305    -0.15028286     0.10358196
Li     -3.93449561     6.42414043    -1.95281622     0.26110678    -0.01334942    -0.16651147
Li     -3.84307460     6.53050153    -5.88913317    -0.08767769    -0.10351955    -0.03261627
Li     -7.82268463     6.35216044    -9.98534503    -0.41866421     0.47956315     0.24642384
Li     -7.84197352     6.44379848    -5.93852247    -0.24174025     0.32376431     0.16185196
Ti     -1.98970685     2.20068423    -4.04912204    -0.68982771     0.49992134     0.08898509
Ti     -5.84440748     6.74934186    -7.94892313    -0.04554864    -0.34925862     0.50150415
Ti     -7.68531981     4.43425336    -7.76502813    -3.24546802     0.20420595     0.15976611
Ti     -7.87819841     4.34617599    -3.69535774    -0.21108325    -0.41700476    -2.24794755
Ti     -3.86767529     4.24911222    -7.74209342     0.87670196     1.44273435     0.01159875
Ti     -4.00338172     4.36787524    -3.82267647     0.02950255    -0.64369032     1.57643628
Ti     -5.92128906     8.67171291    -2.13012193     0.78275763     0.18484779    -1.31452955
Ni     -5.93728636     2.38904783    -7.94852588     0.87626986     0.15559468    -0.07202734
Ni     -5.91861554     2.08141536    -3.91533147     0.30038620     0.54796375    -0.79233366
Ni     -9.82010761     6.62931948    -8.00473445     1.42693787     0.18014238     1.19718784
Ni     -9.81591669     6.54755062    -4.01478357     0.21133267    -0.92841588     0.17725262
Ni     -1.87727785     1.97545080    -7.91251686    -0.32920114     0.36960404     0.03219480
Ni     -5.86668807     6.46664231    -3.99795623    -0.13800889     0.39827280    -0.02392090
Ni     -5.77613973     8.72860072    -5.92462864    -0.95242474    -0.89379061     1.05704957
Mo     -5.91481379     0.18358392   -10.24148105     0.54143129    -0.96700098     1.32875162
Mo     -5.82131896     0.06492892    -6.30952536    -4.14286128    -0.84522667     0.00530606
O      -2.02071521     1.82055653    -1.98053858     1.02020137     0.72437952     0.49232268
O      -1.95029666     1.77179062    -6.00476181     0.45465153     1.02170768     0.14991615
O      -5.90025820     6.71665099    -2.00695015     0.22550784     0.38581867     0.63976222
O      -5.93204502     6.91361844    -5.86563517     0.73159148    -0.62021835    -0.53781567
O      -5.86024268     2.07975388    -9.92664523    -0.21875276     0.12285375    -0.68439041
O      -5.92015665     2.03130163    -5.90345043    -0.55864773    -0.22381078     0.85052735
O      -9.73539510     6.95084402    -9.83075801     0.00597050    -0.14601166    -0.54545229
O      -9.89104510     6.90626650    -5.99543975     0.78370476    -0.49603311    -0.53893223
O      -3.97464812     2.31035560    -3.94111954     0.08471120     0.41121473    -0.21043260
O      -3.84662404     2.37171158    -7.89023174    -0.21420702    -0.00470920    -0.29071285
O      -7.80361278     2.37197974    -3.99651677    -0.43264590     0.05553919     0.43796844
O      -7.85104550     2.46664983    -7.89635583    -0.15728107    -0.29992633    -0.32163816
O      -3.74048949     6.27542984    -3.96150878    -1.59389463     0.54533355    -0.53671384
O      -3.95260948     6.30243822    -7.88077408    -0.70661781     0.68430396    -0.18295714
O      -7.81327343     6.25029269    -4.01227483    -0.48808112     1.14264215     0.57006304
O      -7.79386209     6.44243945    -8.03489070    -0.24696253    -0.73841795     0.52550078
O      -3.87295006     4.45288628    -2.03607042    -0.22167058    -0.54533657    -0.18042908
O      -3.85735960     4.34277110    -5.95449988    -0.47236858     0.08133499    -0.44925620
O      -8.05314674     4.32901405    -9.93953373     0.34978357     0.19694274     1.68710133
O      -7.90812752     4.58519477    -6.03726684    -0.15403514    -1.01515826     0.02821198
O      -3.98331806     0.07340185    -9.93192976    -0.79716271     0.12067339    -0.25458340
O      -4.19357271     0.05637477    -5.93205195     3.33402001    -0.23764736     0.55109264
O     -11.71959376     8.73319141    -6.08212261    -1.00184003     0.13563574     0.50695660
O      -7.65479802     0.02658898    -9.68680372     0.60258293     0.29683997    -1.16092848
O      -2.02753874     4.04430690    -4.04256972     0.29894001    -0.38679198     0.03783447
O      -9.82891874     4.60712872    -4.01029073     0.16206935     0.57906417    -0.27847540
O      -5.95160945     4.50620543    -3.97607756     0.47914433    -0.00128910    -0.13972326
O      -5.90144864     4.38450826    -8.01478838     2.24663729    -0.28927006    -0.04377231
O      -2.10649151     0.11543800    -4.00291357     0.51038050     0.02043573     0.05298983
O      -5.99455548     8.55241509    -7.78122793     0.83611463    -0.12830682    -1.22760949
O      -9.89960817     8.45186191    -4.01819623    -0.04829004    -0.03719176    -0.16389340
O      -5.85466015     0.55884626    -8.02023230     0.19048443     0.36896196    -0.90599686
