# total energy = -630.87816653 eV

CRYSTAL
PRIMVEC
        0.00279571     0.02951795    -7.98606283
       -7.83802570     0.01298533    -3.99532603
       -3.92160916     8.71933433     0.00634407
PRIMCOORD
56 1
Li     -3.91733923     2.33140010    -2.13186009    -0.62129018     0.15540829     0.93606124
Li     -4.14637414     2.47604332    -5.92893582     0.66195938    -0.40126127    -0.89923307
Li     -7.80029567     2.43526922    -9.82990910     0.08545461    -0.20445217    -0.66176201
Li     -7.88763387     2.05220333    -5.96464848     0.22674595     0.22544828     0.12358415
Li     -3.95180497     6.38459838    -1.81646411     0.52254093     0.39898407    -0.77582080
Li     -3.82510626     6.64350097    -5.94502330    -0.25482579    -0.48449471     0.40541017
Li     -7.77693990     6.57235037    -9.89262243    -0.42448544    -0.51686159    -0.15288910
Li     -7.71546398     6.40079796    -5.84916262    -0.63567478    -0.10928189     0.09503183
Ti     -2.03919119     2.35911688    -4.03043626     0.58737973     0.23170021    -1.56376800
Ti     -5.77465694     6.80484344    -7.95239712    -0.32124931     0.87743856     0.43239817
Ti     -7.81854462     4.45226620    -7.68977320     0.58872116    -1.04592754     0.85727030
Ti     -7.75683225     4.26584415    -3.77496558    -0.35449318     0.92698419     1.49074466
Ti     -3.82569362     4.37579859    -7.75717771    -0.00831155    -0.43283457     0.08063019
Ti     -4.03008250     4.50555612    -3.76266414    -0.03007062     0.30512049    -1.51693252
Ti     -2.12661577     0.04299241    -2.26576164     0.30119015    -1.39630498     0.21090552
Ni     -5.96288278     2.43891083    -7.92963802     1.08095962    -0.73012866    -1.05557952
Ni     -5.93778570     2.15694354    -4.19561153     0.66378792     0.41475814     2.15839231
Ni     -9.77443114     6.39053912    -7.79454685    -0.74461212     0.31844360    -0.89272347
Ni     -9.69634483     6.35387253    -3.87788281     0.10500201     0.29201640    -0.36940423
Ni     -1.94995589     2.11700832    -8.00991681    -0.16048075     0.49948357     0.88705458
Ni     -5.91833115     6.70251370    -4.00991723     0.86066823    -0.59833817     0.39875447
Ni     -5.92517132     8.70319110    -5.96994159     0.04402037     0.31268210    -0.18064978
Mo     -5.93286701     0.04512324   -10.22488991    -0.86209014     0.12337999    -0.66261040
Mo     -9.79601094     8.57543053    -6.42520822    -0.03141794    -0.53540480     2.39257781
O      -2.05011651     1.90355325    -1.98888759     0.42220323     0.29955793    -0.65052614
O      -1.87640628     1.79002548    -5.99200576    -0.29800991     1.13802778     0.04727434
O      -5.82185580     6.79578135    -1.87337665    -0.54903627     0.41089489    -0.71176072
O      -5.89393685     6.81344175    -5.94768169     0.16504992     0.47330159     0.12643143
O      -5.77964604     2.02046074   -10.14656024    -0.86605440    -0.52294720     0.23856185
O      -5.91551720     2.00106008    -5.99089639    -0.87410067    -0.53425089    -1.03945807
O      -9.75792886     6.85252400    -9.87845948     0.48827777     0.09924053     0.11492488
O      -9.72874274     6.64159086    -5.91239253     0.04966779     1.45982257    -0.13967709
O      -3.91444438     2.47111559    -4.12973466     0.28077783    -0.39540622     1.04372003
O      -4.07669497     2.51594778    -8.07999497     0.33062598    -0.65608293     0.52347116
O      -7.82515923     2.30275972    -3.99458140    -0.19350886     0.09651930     0.04875352
O      -7.88155123     2.48783460    -7.94058952    -0.40243298    -0.24422442    -0.02424729
O      -3.91319264     6.40696719    -3.97436054     0.05713992    -0.00601480     0.23587136
O      -3.84341446     6.37459443    -7.93744233    -0.84488905     0.26513462     0.21878245
O      -7.77781746     6.32392315    -3.92000082    -0.46601632    -0.38329630    -0.17191836
O      -7.83949927     6.31042259    -7.90915017     1.00915006     1.35211549     0.16834837
O      -3.92598592     4.45396270    -2.04248938     0.10843061    -0.26129084     1.29781981
O      -3.89833901     4.40614132    -6.01453396    -0.00068187     0.28358518     0.44863702
O      -7.91331347     4.50312513    -9.93059722     0.25932222    -0.86745029    -1.41176340
O      -7.98451711     4.31062059    -5.89322571     0.14785068     0.65318880    -1.17791517
O      -7.89331755     8.66056091    -2.05092760     0.89183442    -0.03693285     0.04373557
O      -4.08854835     0.18108532    -6.07608482    -1.31059918    -1.09717280    -0.26337589
O     -11.66805939     8.58603224    -6.00418921     1.03485259     0.75137048    -0.50320641
O     -11.61329441     8.63963624   -10.01537905    -0.06037771     0.24619137    -0.06482715
O      -2.02662649     4.30495802    -4.08138252     0.35567556    -1.12248111     0.34403925
O      -1.92234689     4.08763369    -7.97636416    -0.04726259    -0.23314436    -0.12207086
O      -5.87080308     4.12109402    -4.05549223    -0.63219678    -0.25717721    -0.29492286
O      -5.87762455     4.32828526    -7.90315030    -0.54114891     0.67621238    -0.23564026
O      -1.96342568     0.29151582    -4.10303206    -0.18582969    -0.36307524     0.99224334
O      -5.89526232     8.70542087    -7.89263688     0.15128159    -1.20549359    -0.20113877
O      -5.89226235     0.26434649    -4.05830278     0.08072824     0.11816590     0.02811893
O      -5.96805561     0.50859956    -8.12468649     0.23605981     0.74895466    -0.62637100
