# total energy = -630.78903263 eV

CRYSTAL
PRIMVEC
        0.00279571     0.02951795    -7.98606283
       -7.83802570     0.01298533    -3.99532603
       -3.92160916     8.71933433     0.00634407
PRIMCOORD
56 1
Li     -3.92220456     2.21443793    -1.85090853     0.04407823     0.10837060    -0.76439746
Li     -3.96160726     2.36189670    -5.91885983    -0.10259284    -0.38602343    -0.54770071
Li     -7.72005001     2.40197077    -9.96060862    -0.74825510    -0.24901786     0.14260429
Li     -7.72795200     2.50622261    -5.88577745    -0.36915567    -0.37092592    -0.09002317
Li     -3.91989198     6.39835076    -1.96614080     0.16900839    -0.08284941     0.26639736
Li     -3.89243863     6.28620451    -5.87698545    -0.13181373     0.16365777     0.08831355
Li     -7.85385065     6.65237741    -9.80704061    -0.27394297    -0.33089934    -0.66978361
Li     -7.90596030     6.45498212    -5.96082522     0.24890329     0.18680534     0.27849408
Ti     -1.97046810     2.14259473    -4.02143882     0.39210006    -0.53615885    -0.16974170
Ti     -5.82199584     6.64784900    -7.89544028    -0.67709006     0.04298296    -0.13480489
Ti     -7.74930318     4.40079039    -7.79182509    -0.96484989    -0.24996738     1.76571094
Ti     -7.88722917     4.38726500    -3.64683153     0.16819888     0.04657502    -0.35616114
Ti     -3.77842388     4.40051397    -7.78779917    -0.80796158    -1.26305650    -1.04291340
Ti     -3.94869102     4.30147044    -3.80557028     0.49686307    -0.07862897     2.62777294
Ti     -6.09243549     8.63278312    -2.18318285    -0.20011068    -0.21452414    -0.23560556
Ni     -5.86656765     2.39719809    -8.03216027    -0.46610937     0.05734072     0.32197326
Ni     -5.91904883     2.32506381    -3.98230227     0.25846208    -0.78201229    -0.01933324
Ni     -9.87674722     6.62880251    -7.93811126     0.38777471     0.02783850     0.99868939
Ni     -9.72803341     6.54479223    -3.95071899    -0.18646171     0.03550988    -0.59303602
Ni     -2.03121772     1.96407904    -7.95888201     0.46521056     0.20435355    -0.54071294
Ni     -5.87239629     6.41505437    -4.04624081     0.06232201     0.53995769     0.88619399
Ni     -5.87277291     8.72759599    -5.94363502    -0.76370604     0.66622201    -0.73323218
Mo     -5.97606909     0.11959032   -10.28777578     0.37749343     0.91825081     0.53150877
Mo     -9.77486464     8.70279192    -6.35963200     1.13945662    -0.00317143     0.23238941
O      -1.92663696     1.80774820    -2.14612933     0.12350517     0.77661764     2.18904477
O      -1.99305698     1.87632759    -6.12917381    -0.09334701    -0.41708406     0.79164980
O      -5.90363481     6.70298970    -2.08675667     0.23670332     0.29794918     0.08882043
O      -5.81067879     6.88747978    -5.95576749    -0.03825777    -0.45035665    -0.13299036
O      -5.88598041     2.12573182   -10.00391423     0.16713244    -0.62498096    -1.07388068
O      -5.83196845     1.91174836    -5.88511592    -0.31274064     0.60009793     0.43321792
O      -9.92854827     6.95581863    -9.79504383     0.77538606     0.00225289     0.22699093
O      -9.77628913     6.75361722    -6.00521152    -0.04987703     0.31745249    -0.38606084
O      -3.94521705     2.27412908    -4.00207638    -0.39801521     1.32728991     0.17469329
O      -4.02668181     2.49537190    -8.03748962     1.31011430    -0.57622573     0.57656380
O      -7.92350600     2.42956096    -3.94650927     0.28527373     0.39560650    -0.11286810
O      -7.80914923     2.35655858    -7.92736201     0.49327590     1.14445533    -0.46803091
O      -3.92054834     6.29486010    -3.81454309     0.38800456    -0.26055356    -1.66195131
O      -3.89664570     6.29864651    -7.90812337    -0.35740612     1.95644091    -0.48859473
O      -7.79218391     6.34028560    -3.86724445    -0.39576527     0.02602200    -0.40584060
O      -7.84410229     6.36205138    -8.00070149    -0.28068167    -0.07799415     0.68531510
O      -3.78646443     4.31835347    -1.97739647    -0.69329124    -0.10723417    -2.03357129
O      -4.00602600     4.33229811    -6.06254811     0.26071233     0.07107293     2.58652186
O      -7.81449824     4.45833513    -9.86237386    -0.47152988    -0.40019187    -0.52593792
O      -7.90257039     4.51935467    -5.97600171     0.27482456    -0.55994920    -1.29075590
O      -4.03306135     0.17276749   -10.00636347    -0.26483079    -0.70415980    -0.14691000
O      -7.90635046     8.68527262    -6.04032944    -0.09406506    -0.18807595    -0.48408266
O     -11.52177953     8.71130177    -6.09563058    -1.19054669    -0.44716688     0.38607650
O      -7.73147154     0.20360969   -10.12556411    -1.13856931    -0.16401307     0.03470761
O      -1.94091649     3.95763760    -3.95945511    -0.64412921     1.79080624    -0.78650940
O      -9.81338539     4.66078379   -11.91378006     2.21688162     0.61302001    -0.07362803
O      -5.90651593     4.43264133    -4.00288364     0.02451511    -0.38802020    -0.09342271
O      -5.84890402     4.53184550    -7.97887946    -0.28954570    -0.47195790    -0.27827645
O      -2.09841199     0.20109510    -4.01207272     0.76489584    -1.01184084    -0.82123061
O      -6.07731343     8.42404415    -8.24937758     1.18497977     0.40099130     1.44364076
O      -9.69191774     8.45630215    -4.04777031    -0.34860605    -0.43485417    -0.26265319
O      -5.88433203     0.58814808    -8.11870000     0.20003377    -0.42497910    -0.28104734
