# total energy = -630.71602277 eV

CRYSTAL
PRIMVEC
        0.00285542     0.02004370    -7.95977623
       -7.82940539     0.00763210    -3.98158109
       -3.91729101     8.74642787     0.01461334
PRIMCOORD
56 1
Li     -3.90061924     2.30384214    -1.91477792     0.11081048    -0.02255502    -0.02332865
Li     -3.97506937     1.95658738    -5.91981000     0.55803825     0.02785651    -0.30363207
Li     -7.77451575     2.18861889   -10.01297554    -0.23695634     0.25113045     0.04591360
Li     -7.64279506     2.24037297    -5.94530073    -0.50297657     0.02853974    -0.09802669
Li     -3.87621754     6.57260743    -2.04204776    -0.00827895    -0.00208909     0.64717165
Li     -3.95452559     6.54231996    -5.98277137     0.56552394    -0.07946473     0.51340176
Li     -7.82064337     6.28991580   -10.10556272    -0.02658671     0.08550925     0.90799724
Li     -7.50206231     6.35178081    -5.79464630    -1.80926009    -0.25651398    -0.04799352
Ti     -1.93443089     2.25684039    -4.05530609    -0.18096761    -0.00872176    -0.00941595
Ti     -5.81867057     6.83927233    -7.94935599    -0.19396753    -0.97199977    -0.03345057
Ti     -7.96053901     4.46090145    -7.75376671     1.59255533    -0.31579196     0.85699937
Ti     -7.94488729     4.23895209    -3.81075169     0.84984050     0.75022695     0.13408511
Ti     -3.93555237     4.40297663    -7.66064397    -1.61152457    -1.10782504     1.19691383
Ti     -4.04620993     4.38239307    -3.63532475     0.07932862     0.43169210    -0.37707202
Ti     -2.20400904     0.04775418    -2.10399672     2.23556941    -0.14642781    -0.68704161
Ni     -5.83147709     2.38780340    -8.03775199    -1.66850701     1.25935528     0.23501475
Ni     -5.81672538     2.31613307    -4.03563292    -0.90272063    -0.52324760    -0.13675832
Ni     -9.74606932     6.43495786    -8.00962997    -0.63205421     0.58418815     1.04983870
Ni     -9.77018754     6.19911017    -4.08462740     0.28577600     0.86680524     0.06989438
Ni     -1.98500977     2.25584230    -7.92930547    -0.15122205    -0.36245549    -0.14474348
Ni     -5.68621659     6.54806303    -3.94436690    -2.07225717     0.12385423    -0.00613101
Ni     -5.90215878     8.68394186    -5.88725084    -0.10214685     0.88417499     0.41132509
Mo     -5.95726397     0.07287995   -10.14215955    -0.81681855    -0.71021519    -0.09057548
Mo     -9.80430720     8.66164169    -6.28628332     0.11350266    -0.08092098    -0.26730371
O      -1.86558318     1.89402563    -1.94128532    -0.22841835     0.79000452    -0.35971110
O      -2.01593636     1.79033988    -5.94614253     0.22408223     0.32065612    -0.25725253
O      -5.90527022     6.83141657    -1.96931504     0.34386185     0.07604891    -0.01782370
O      -5.84084885     6.76658246    -5.95658893     1.14898651     1.10291853     0.46315512
O      -5.79369093     2.13744175   -10.03713581    -0.60099751    -0.48814041     0.31161978
O      -5.75476158     1.92198146    -5.91010799    -1.42109741     0.76417531    -0.71064390
O      -9.71631844     6.92178004    -9.91450941    -0.03340325     0.89552772    -0.22290629
O      -9.75706228     6.76905308    -6.01678384     0.07227697    -0.23498279     0.10729768
O      -3.93313271     2.37555295    -4.01141948     1.24242992     0.96900879     0.61251693
O      -4.02579097     2.40715274    -8.00963943     1.90519915     0.92501953     0.98989422
O      -7.85929293     2.31863998    -4.03711056     0.35799490     0.18944099     0.46238104
O      -7.80803577     2.54016365    -8.08666748    -0.58965843    -0.92315997     0.47889770
O      -3.84653924     6.40312918    -3.88819755     0.67874244    -0.77843860    -0.39194406
O      -3.88738009     6.35622549    -7.98346446    -0.74014546     0.66820274     0.05453108
O      -7.82112903     6.24017724    -3.93582269     0.02033656    -0.04340015    -0.87835503
O      -7.81209630     6.36983811    -7.92807801     0.79939045     0.42396998    -0.38622260
O      -3.81818444     4.43324892    -1.86152504    -0.59246448     0.10664115    -1.74393193
O      -3.85245676     4.65669017    -5.87905229    -0.03843130    -0.76099041    -1.20656946
O      -8.13516240     4.36041937   -10.01869091     0.83613226    -0.01720517     0.44524435
O      -7.82846491     4.34687586    -5.98428846    -0.54102353     0.14226685    -0.43142937
O      -3.93287919     0.17994654    -1.97207794    -1.79893183    -0.37589319     0.05616261
O      -8.02212804     8.72004586    -5.90602437     0.70290481    -0.32773587    -0.05703962
O     -11.60297140     8.69341544    -6.02453641     0.25050410     0.03847030     0.44215279
O      -7.73886980     0.08311539    -9.96783705     1.00129552    -0.21283503     0.05660244
O      -2.05640411     4.22053239    -3.98506691     0.47378419    -0.52753182     0.04985221
O      -2.04920191     4.28835684    -7.98991560     0.77322880    -0.50927295    -0.59081732
O      -5.92025688     4.23219656    -4.06451494     0.33230621    -0.09449988     0.55266447
O      -5.92374438     4.28646481    -7.95478993     0.47698932     0.49510480    -0.27591410
O      -1.83795576     0.29882942    -3.95971682    -0.53069415    -0.53893441    -0.13158777
O      -5.81120063     8.64175582    -7.78852190    -0.37098710    -0.29851560    -1.08800085
O      -5.86569143     0.45776876    -3.95875506     0.04181590    -1.09499077     0.62204107
O      -5.88626400     0.56615598    -8.06259421     0.25101618    -0.39316566    -0.68018498
