# total energy = -630.55823297 eV

CRYSTAL
PRIMVEC
        0.00279571     0.02951795    -7.98606283
       -7.83802570     0.01298533    -3.99532603
       -3.92160916     8.71933433     0.00634407
PRIMCOORD
56 1
Li     -3.81005596     2.23548545    -1.91549138    -0.22733492    -0.07236047    -0.06224984
Li     -3.95974698     2.06864683    -5.96097379    -0.06644590     0.47295596    -0.45868328
Li     -7.67745347     2.26932172   -10.11216490    -0.47144597     0.18948514     0.13633587
Li     -7.72961808     2.31564364    -5.98220583    -0.85118704    -0.15808774     0.23788050
Li     -3.97255643     6.40939519    -1.86534898     0.13944066    -0.08970953    -0.17841524
Li     -3.89108781     6.40103790    -5.92868960     0.17312638     0.00519641     0.24721358
Li     -7.83967023     6.49407379    -9.92883806    -0.38926776     0.29541900     0.08401078
Li     -7.91847894     6.43359756    -5.92340308     0.31392985     0.19490280     0.04500072
Ti     -1.90894869     2.26457629    -4.15145422    -0.26904422     0.71478305     0.89706573
Ti     -5.86012564     6.77861654    -7.90644139     0.39678287    -0.40987441     0.05255836
Ti     -7.76031313     4.42721737    -7.76298681    -0.40314916     0.20100286    -2.35732561
Ti     -7.83091968     4.42247742    -3.78425826     0.54892456     0.26146853    -2.05127723
Ti     -3.97301700     4.33406061    -7.76046136     1.04715716     0.48362725     0.20673399
Ti     -3.95569457     4.34614476    -3.77659387    -1.23874766     0.48778606     1.34825610
Ti     -5.90878169     8.63986034    -2.26473620    -0.93807825     0.68181520     1.90900860
Ni     -5.92310294     2.30238254    -8.01482352     1.30477642     1.48460497    -0.76799348
Ni     -5.88569848     2.29124611    -4.06788601     0.18436495    -0.06621023    -0.65117726
Ni     -9.85685619     6.46360208    -7.74136656    -0.72548226     0.64053459    -1.06196736
Ni     -9.74814238     6.31835522    -4.02156815    -0.62884213     0.07118424     0.81762815
Ni     -1.87717662     2.25528898    -7.94487776    -0.48826103     0.37874095    -0.73299834
Ni     -5.92299835     6.68180904    -3.97196189     0.15739359    -1.18084895    -0.10122871
Ni     -5.96669623     8.69085256    -5.95373860     0.48108772    -0.08774960     0.51119574
Mo     -9.91120259     8.71299919   -10.26555882     0.74459094    -1.68859482     0.23442905
Mo     -9.81586941     8.72855816    -6.26155244    -1.72374782    -0.51273791     0.30277617
O      -1.90279360     1.85834963    -2.08447570     0.06040241     0.00806590    -0.29183251
O      -1.97445601     1.89977852    -6.01572563     0.20459466    -1.04991185     0.05829076
O      -5.92816841     6.67640404    -1.89735642     0.72385973     0.61921536    -0.00476646
O      -5.87471356     6.85879274    -5.87714362    -0.62129824    -0.52292520    -0.66021377
O      -5.78079692     1.91358237   -10.10918147    -0.36826265     0.82798508     0.90791510
O      -5.92258337     2.07601362    -6.00674639     0.30241819    -0.39299569     0.04402456
O      -9.77861131     6.86117956    -9.68674536     0.05691529     0.92663067    -0.68760138
O      -9.85726744     6.83010772    -5.84326048     0.19198396    -0.34558069    -0.66473711
O      -3.94305964     2.38480563    -4.05564782     0.92111242     0.03546543     0.27887278
O      -3.97980189     2.47357942    -7.97037227     0.24741578    -1.41927107    -0.08577181
O      -7.79327047     2.41419561    -4.06129970    -0.36433491     0.44477113     0.52772755
O      -7.76197621     2.45291994    -8.17074618    -1.47199661    -0.06856429     0.63006392
O      -3.86608067     6.29291805    -4.01556632    -0.61293426    -0.10618265     1.09061063
O      -3.90437271     6.40919331    -7.88586298    -0.81938526    -0.55213139    -0.31789221
O      -7.87670418     6.51922932    -4.04359211    -0.01362913    -1.58028386     0.38594146
O      -8.03443727     6.34109299    -7.89886161     2.42162908     0.13663225     0.01892818
O      -3.81607610     4.35341018    -1.92198143    -0.05029733     0.18852219    -2.28969370
O      -3.75354564     4.33365107    -6.00766992    -0.35245697     0.47503278     0.28582138
O      -7.89311796     4.48008151   -10.07654934     0.31451697    -0.00219130     2.54136795
O      -7.85830907     4.49399229    -6.07537443    -0.17816865    -0.58799082     2.20984256
O      -7.78935851     8.57337559    -2.04830546    -0.53211392     0.57854102     0.01427405
O      -4.12515809     0.07009463    -6.09967290     0.12675081    -0.24014743     0.35626858
O     -11.70303226     8.71872483    -5.84801965     0.48795141    -0.20127791    -0.90465445
O      -3.84104046     8.55107759    -6.16943840     1.30899071     0.92372476     0.31637667
O      -1.98834772     4.14844749    -4.04240689     0.71394898    -0.86867379     0.00149516
O      -9.73183304     4.25668453    -3.99950341    -0.96278861     0.09121316    -0.70435011
O      -5.91748788     4.27785990    -4.17456881     1.24743320    -0.23886878     0.63299061
O      -5.86389603     4.42725468    -8.09961448    -0.57393613    -0.15446828     0.57702976
O      -5.82804036     8.73002901    -4.04472541     0.21193145     1.28585281    -1.63159382
O      -5.93212895     8.56794782    -7.78112141    -0.15063778     0.35646426    -1.10350847
O      -5.86426271     0.38245758    -4.09089000     0.11843472    -0.42676603     0.48663075
O      -6.00327166     0.53152837    -8.05226299     0.05370865    -1.17980961    -0.63405337
