# total energy = -630.52574741 eV

CRYSTAL
PRIMVEC
        0.00279571     0.02951795    -7.98606283
       -7.83802570     0.01298533    -3.99532603
       -3.92160916     8.71933433     0.00634407
PRIMCOORD
56 1
Li     -3.91815921     2.48200653    -1.99114387     0.38849060    -0.75135866     0.23777622
Li     -3.79160115     2.35555528    -5.97690337    -0.86343179    -0.26631973    -0.32818465
Li     -7.74713067     2.43962804    -9.96985065     0.21526593    -0.62456301     0.11005465
Li     -7.65871355     2.37630778    -5.96356699    -0.41399244    -0.57315551     0.37722784
Li     -3.98722200     6.48188534    -2.08940265     0.16448109     0.00139363     0.57580152
Li     -3.78966976     6.55704780    -5.90306285    -0.62312142    -0.13775108    -0.02745961
Li     -7.92724685     6.43581643    -9.74371285     0.35962680    -0.00062917    -1.29649388
Li     -7.99028392     6.27198059    -5.84464065     0.70906038     0.33257964     0.27262255
Ti     -1.91514857     2.22778826    -4.17719929     0.05239851     0.51597681     1.44098358
Ti     -5.94392661     6.83850737    -7.91263086     0.95605956     0.22268671    -0.28601110
Ti     -7.84387709     4.33262108    -7.65110779    -0.10958291    -0.67300199    -0.00428682
Ti     -8.04470780     4.35138485    -3.68518658     1.12401062     0.68306893    -0.43028210
Ti     -3.92896870     4.33793126    -7.70874600    -0.82135141     0.62847193     0.11233975
Ti     -4.13365265     4.35323078    -3.79729099     1.42665092     0.60046641    -0.40355039
Ti     -2.00182664     0.07854682    -2.17873079    -0.62763394    -0.56714848     0.37301525
Ni     -5.73135865     2.30160373    -8.11731504    -1.45518894     1.53605245     0.78326182
Ni     -5.87449650     2.14099560    -3.96656984     0.17931871     0.15843519    -0.62302142
Ni     -9.78350247     6.68226458    -7.94130668    -0.79136974    -0.76965906     1.72997634
Ni     -9.95778943     6.55373344    -4.09297958     0.94362995     0.17058990     0.26782465
Ni     -1.79471411     2.13001130    -7.91629525    -0.16290631    -0.72735501    -1.11607889
Ni     -5.86705294     6.49921374    -3.98038952    -0.67932632     0.53988886     0.09480864
Ni     -2.09433251     0.04223379    -5.91470161     0.83610848    -0.99039856    -0.62520186
Mo     -9.83611358     8.74369470   -10.29391656     0.14587500     0.58675636    -0.42049284
Mo     -9.80795440     8.70791170    -6.35436382     0.48985465    -0.66358782     0.07529805
O      -1.68479222     1.91669988    -1.99849961    -1.33978519     0.34657391     0.83864596
O      -1.92224383     1.87608494    -6.04619106    -0.31832988     0.27202374    -0.32013497
O      -5.97385785     6.84312424    -1.90033744     0.66971563    -0.64224951    -0.25583485
O      -5.87394961     6.94013355    -5.88527830    -0.66152896    -0.50065905     0.22880561
O      -5.84886273     1.98661920   -10.08636279     0.74341539     0.14782680    -0.04825953
O      -5.88500510     1.83459169    -5.83744442     0.70402404     0.32334503    -0.33176094
O      -9.76516170     6.97988397    -9.67931767     0.08116476    -0.39264139    -1.36896255
O      -9.77665345     6.68089595    -6.09897637    -0.78354356     0.96894712     0.32524535
O      -3.93332115     2.31931282    -4.09541909     0.24202186     0.87297238     0.98706907
O      -3.82480300     2.41444514    -7.97402550     0.60173157     0.59881178    -0.10885499
O      -7.71032744     2.38853393    -3.89010428    -1.27661934     0.05457126    -0.26148885
O      -7.86305753     2.35223482    -8.04413695     1.17086956     0.41779422     0.29108439
O      -3.91673918     6.45550446    -4.01060775     0.01008045    -1.56714492     0.38735396
O      -4.05982131     6.41155001    -7.92200163     0.15277689    -0.65819895    -0.16852777
O      -7.81177581     6.31306206    -3.85732210    -0.06634458    -0.46246242    -0.54518121
O      -7.89740380     6.22569779    -7.93578937     0.47464229     0.84329542     0.74039593
O      -3.91495240     4.36317029    -2.02001947     0.07236104     0.29208984    -0.25609902
O      -3.80136938     4.40863100    -5.93962033    -0.10239443    -0.10717181    -0.11494878
O      -7.87264358     4.27113059    -9.91944332     0.28196173     0.56441009     0.16313260
O      -7.79052597     4.22959268    -5.86313882    -0.45806753     0.77421604    -1.06179967
O      -7.81855612     8.70117290    -2.03779905    -1.00650100     0.80240301    -0.13487683
O      -7.92974935     8.61519445    -6.21494733    -1.22503895     0.24483717     0.50552026
O     -11.65917191     8.68026362    -6.09698279     0.74453628    -0.66514881    -0.31948440
O      -7.68007464     0.06698117   -10.12393432     0.24157718    -0.00296297     0.46792285
O      -1.90645459     4.09431637    -4.03477482    -0.61969078    -0.18118271     0.25747421
O      -9.86425563     4.76568494   -11.85961044    -0.29868476    -0.33220425    -0.75270007
O      -5.91889051     4.26209123    -4.09497643    -0.67503037     0.54315149     0.52634482
O      -5.88851623     4.26052275    -7.88539873     0.64142618    -0.29467944    -0.40149830
O      -1.98681847     0.22701844    -4.01531858     0.03725406    -0.01367335    -0.59250143
O      -5.84270984     8.63103501    -7.94653589    -0.21182501    -0.39963971    -0.07702022
O      -9.90654630     8.41575888    -4.16196023     0.77932396    -0.03413976     0.79918354
O      -5.85477470     0.55084793    -8.13793154     0.13234511    -0.87991537    -0.22451859
