# total energy = -630.19832200 eV

CRYSTAL
PRIMVEC
        0.00285542     0.02004370    -7.95977623
       -7.82940539     0.00763210    -3.98158109
       -3.91729101     8.74642787     0.01461334
PRIMCOORD
56 1
Li     -3.98298420     2.50267087    -1.88238200     0.12383834    -0.41229885     0.06491153
Li     -3.89460889     2.31354446    -5.79083440    -0.13182726    -0.22598443    -0.74500875
Li     -7.78984536     2.58615674    -9.89841933    -0.02787164    -1.54754511    -0.10623074
Li     -7.76363853     2.29293687    -5.87349736    -0.37427258    -0.15959973    -0.39766655
Li     -3.78672804     6.36333142    -1.92703147    -0.27377238    -0.02285986    -0.23402209
Li     -3.88569998     6.10463768    -5.86216777    -0.16409918     1.67998528     0.41140195
Li     -7.90844311     6.31257344    -9.86413662    -0.17310024     0.00153062    -0.21148710
Li     -7.87863939     6.66440233    -5.84405555    -0.27418957    -0.31984914    -0.39865563
Ti     -1.92795655     2.28587700    -4.02233999     0.82625581    -1.27082515     0.34408927
Ti     -5.80617793     6.48601186    -8.09172068    -0.12422795     0.82614791     1.50542188
Ti     -7.83356108     4.41896395    -7.67731798     0.05840433     0.20764548     1.53751990
Ti     -7.74697350     4.37422061    -3.81312665     0.76238350    -0.28033469    -0.19706485
Ti     -3.63651739     4.36010477    -7.59890737    -0.56881434    -0.51635502    -1.39205819
Ti     -3.98662571     4.32963917    -3.77515233     0.63995010     1.53638787     1.36151385
Ti     -6.14826002     8.72577982    -2.06359270     2.83924399     1.68900598    -0.39279467
Ni     -5.76612569     2.28810783    -7.93822545    -0.96123695     0.09114763    -0.58979708
Ni     -5.88630323     2.17213908    -4.02065129     0.01868546    -0.37525189     0.16209837
Ni     -9.85103725     6.64044185    -7.82671841    -0.20119962    -0.03701708    -1.31555504
Ni     -9.71430557     6.70462117    -4.00413972    -0.13863960    -0.04504460     0.50516165
Ni     -1.96478329     2.14984888    -7.91548346     1.32017106    -0.02144672    -0.29375673
Ni     -5.90250911     6.70069845    -4.02763604     0.59172276    -0.53382657     0.18099172
Ni     -6.01544984     8.65497429    -5.99385072     0.35669323     1.24743930     0.78537747
Mo     -9.93277394     8.68360774   -10.20379761    -1.02184465     0.07947617    -0.37811719
Mo     -5.87034138     0.09967592    -6.40162416    -1.27009608    -0.95026960     0.87335389
O      -1.91012548     1.91082213    -1.94701700    -0.67580479    -0.35293860     0.56479706
O      -1.94264217     1.83702825    -6.02197178    -0.05488429    -0.52811044     0.33712827
O      -5.76681120     6.79045402    -1.98497046    -0.41663949    -0.23242386    -0.40684812
O      -6.01857367     6.83409713    -5.92599937     0.67872182    -0.09537033     0.83119329
O      -5.98603303     1.93915258   -10.01072124     1.26269463     0.13142351     0.03622278
O      -5.78476489     2.03168474    -5.97822559     0.00748458     0.33733891     0.48133278
O      -9.75909838     6.87481669    -9.68710042     0.23404038    -0.48914121    -0.72378918
O      -9.83758515     6.89719409    -6.05765266     0.15758370    -0.59943823     1.85032046
O      -3.85174074     2.40674453    -3.90267985    -1.10811773    -0.39749810     0.00809254
O      -3.82587324     2.42163675    -7.80946967    -0.92448986     0.10756952    -0.90885998
O      -7.78272205     2.40136932    -4.04785206    -0.18500506    -0.30240363     0.77337357
O      -7.84043716     2.48057714    -7.83561869     0.90317228    -0.32034049    -0.88655628
O      -3.93986814     6.34753046    -3.95550301     0.04981465    -0.15122777    -0.07741664
O      -3.81667314     6.31328019    -7.83326061    -0.30234111     0.15126449    -0.41147288
O      -7.80813023     6.29957032    -3.93856947    -0.09032078     1.24340040     0.12569757
O      -7.93107640     6.33612904    -7.89449551     0.93052040    -0.00950325    -0.47910198
O      -3.93740279     4.43062618    -1.97305441     0.09037112    -0.31495492    -0.04751219
O      -3.95876252     4.33585921    -5.86397649     0.10242255    -0.27219421    -0.01366870
O      -7.87647027     4.29105412    -9.99490391     0.18692966     1.63678534     0.72712585
O      -8.11745040     4.39720394    -5.90701635     0.67635429     0.09934990    -0.95415943
O      -7.85214576     8.67747546    -2.00791742    -2.71116092    -0.00663751     0.19983294
O      -8.00651471     8.65364174    -6.10853709     1.34143705     0.37111626     0.31001424
O      -7.63849517     0.12108770    -6.16496525    -0.54483870    -0.45864569     0.77354211
O     -11.63496080     8.59576671    -9.97340424    -0.68277014     0.19677458    -0.45468503
O      -1.94902255     4.14524715    -4.09710491    -0.66240789     0.45585187     0.03506136
O      -9.66934733     4.23804525   -11.83010719    -1.35467062     0.15756833    -0.25322874
O      -5.84496342     4.21086577    -3.99566914    -0.50734100    -0.69797990    -0.41253450
O      -5.87945300     4.52266621    -7.86950547     0.20352463     0.25052018    -0.21326111
O      -2.00476217     0.35748478    -3.94335492    -0.01119104    -1.62777733    -0.57728608
O      -5.90950899     8.40588804    -7.82626614     0.38695931    -0.42238750    -1.35053873
O      -5.84959784     0.16524710    -4.11430885     0.05248033     0.19899406     1.07011416
O      -5.98786097     0.39942664    -8.17267362     1.23620488     1.04231309    -0.92975182
