# total energy = -630.73821089 eV

CRYSTAL
PRIMVEC
        0.00279571     0.02951795    -7.98606283
       -7.83802570     0.01298533    -3.99532603
       -3.92160916     8.71933433     0.00634407
PRIMCOORD
56 1
Li     -4.04566917     2.51195727    -1.95866699     0.45150489    -0.35832323     0.00262510
Li     -4.03726914     2.33182060    -6.01176122     0.41055581    -0.19010830     0.25282033
Li     -7.84517574     2.49387579   -10.01984452    -0.43554911     0.00642369     0.05534744
Li     -7.89744700     2.09194965    -5.86779989     0.61079022    -0.09606060    -0.61713920
Li     -3.81608422     6.62586360    -1.98720992    -0.13694693    -0.09354681     0.37842797
Li     -3.82280621     6.21604425    -5.93180058    -0.13700577     0.43901107     0.40418151
Li     -7.93506230     6.32517358   -10.00782838     0.05657229     0.12236436     0.31659410
Li     -7.81724249     6.48068463    -5.88173886     0.70845440    -0.37147193     0.08531828
Ti     -2.05288521     2.05632445    -4.06813248     0.13168429     0.30723807    -0.36462107
Ti     -5.83878869     6.50272505    -7.89265288     0.16945143    -0.75427371    -0.34501432
Ti     -8.02193615     4.38725012    -7.79962848     1.04932258    -0.89287311     0.29715705
Ti     -7.76568205     4.32976342    -3.88897181     0.36339181     0.77792910     1.10446031
Ti     -3.64296725     4.25920922    -7.71772427    -0.87427610     1.95076930     0.28602061
Ti     -3.97841116     4.52904733    -3.76281137     0.60930813    -0.27763927    -0.30746383
Ti     -6.29071004     8.65659510    -2.02620130    -0.02220114    -1.22718586     0.46953372
Ni     -5.90966647     2.44753145    -8.03223913    -0.53651145     2.05062048     0.51272634
Ni     -5.83293164     2.08816185    -3.88768358    -0.64456631    -0.06139221    -1.20496511
Ni     -9.63980072     6.73632410    -7.91524256    -1.44828304    -0.33435453     0.90708717
Ni     -9.73282786     6.47677273    -4.04786544    -2.01375211    -0.09156638     0.09614378
Ni     -1.92516409     1.96207420    -7.98638951    -0.39000230     0.12790733    -0.03422742
Ni     -5.89853208     6.70951532    -3.99238486    -0.08921001    -0.48978348     0.20687247
Ni     -5.84630560     8.65525320    -6.01280048    -1.04721319     1.81681077    -0.28564004
Mo     -6.12719931     0.16498308   -10.23951087     0.88327595    -0.75337966     0.70897107
Mo     -5.68182701     0.03847878    -6.36486622    -1.34399706     0.10109326     0.43615718
O      -1.91655287     1.78407738    -1.99945392    -0.09206942     0.44810552     0.20726833
O      -2.04422493     1.83473856    -6.07018076     1.02267836    -0.10666727     0.10966647
O      -5.91809110     6.71737865    -2.08741505     0.09823927     0.81495758     0.35238604
O      -5.84959641     6.83426497    -5.90066120    -0.02212982    -0.38529476    -0.97745775
O      -5.92351586     2.12805981   -10.00901470     0.01997653    -0.61067385    -0.82106749
O      -5.81323401     1.86489928    -5.79077923    -0.24644608     0.74117437     0.49325476
O      -9.81342101     6.98714437    -9.71239099    -0.32445489     0.16439698    -0.75562057
O      -9.55401331     6.83742890    -5.95975233    -0.25265311    -0.02139213    -1.20040703
O      -3.92761491     2.29543272    -3.98232828    -0.47475829     0.39281969     0.68284819
O      -3.93294558     2.48268624    -8.03900100    -0.11600039    -1.43419705    -0.12437772
O      -7.84716458     2.42081962    -4.04980425     0.36541849    -0.72571540     0.72495900
O      -7.83398567     2.41921386    -8.12063773    -0.57325029     0.47309525     0.93521420
O      -3.71653186     6.43345532    -3.86686065     0.39278821    -0.40149108    -0.79116210
O      -3.89910268     6.22624995    -7.92039981    -0.26623225     0.60372830    -0.15779404
O      -7.98149873     6.35570171    -3.89521980     1.87518336     0.13211646    -0.87670669
O      -7.83369099     6.29526046    -8.00076692     0.45506911     0.79322408     0.01055787
O      -3.85584037     4.42326983    -2.00433251    -0.73427787    -0.34511174    -0.01914113
O      -4.11983765     4.27677486    -5.95886569     1.31064453     0.23935725    -0.50279401
O      -7.99902477     4.42292612   -10.05807750     0.32635311    -0.33744747    -0.77381256
O      -8.06087724     4.43694779    -6.03910450     0.11135872    -0.16028581     0.41868722
O      -4.14251008     0.04217523    -9.90457284    -0.07399542     0.59335469    -0.23493635
O      -3.79214564     0.16798498    -6.29354984    -1.12213003    -1.36859645     0.69453027
O     -11.35086262     8.56009396    -5.96805234    -0.37703626     0.50814998    -0.25326694
O      -0.03401376     0.06582518    -5.96768395     0.02978087     0.19935303    -0.59687128
O      -2.06733337     3.98932535    -4.08532067    -0.12915213    -0.28494559    -0.09343963
O      -9.71092821     4.57304208    -4.11058831    -0.37148617     0.40396683     0.48622030
O      -5.88562005     4.78831227    -4.13099625    -0.18558855     0.39420152     0.56586124
O      -6.00491691     4.44645404    -7.86626671     0.57337238    -0.19803475    -0.86328042
O      -2.11662123     0.02946066    -3.96851732     0.33305999     0.04862529     0.45342750
O      -5.94909470     8.35252583    -8.09885372     0.73956120     0.31915385    -0.20468873
O      -9.83936679     8.36879881    -3.99186237     0.46744063    -0.05594512     0.59685862
O      -6.04606134     0.69693103    -8.06278109     0.83369588    -1.51535461    -0.77592948
