# total energy = -630.34447573 eV

CRYSTAL
PRIMVEC
        0.00279571     0.02951795    -7.98606283
       -7.83802570     0.01298533    -3.99532603
       -3.92160916     8.71933433     0.00634407
PRIMCOORD
56 1
Li     -3.99807164     2.37343217    -1.88840046    -0.19633247    -0.15917344    -0.02025827
Li     -3.95219601     2.09745066    -6.13945629    -0.30590194     0.02137171     1.28693620
Li     -7.92662981     2.34505323   -10.00638424    -0.14869562    -0.47129700     0.42821251
Li     -7.73153775     2.37644474    -5.98750116    -1.03667938     0.14652154     0.15639305
Li     -3.84577995     6.28542953    -2.01961632    -0.11676490     0.30802249     0.60214590
Li     -3.95587975     6.64372674    -5.94884397     0.41338311     0.08504547     0.49410120
Li     -7.85207027     6.45132519    -9.99008799    -0.35652122     0.17775979    -0.09312081
Li     -8.00536124     6.44948790    -5.90825517     1.17983194    -0.39109905    -0.27255454
Ti     -2.04648374     2.21250194    -3.89057959    -0.65063733    -0.33844639    -0.90061188
Ti     -5.84444005     6.57381457    -8.01588485     0.35338101     0.81125450    -0.24972539
Ti     -7.85034978     4.41930786    -7.88309782     0.04178836    -0.47775899     2.08897741
Ti     -7.77054421     4.32163213    -3.73114891     0.14688933     0.13286949    -1.69999153
Ti     -3.72226133     4.36062639    -7.58417310     0.05020328    -0.33903306    -0.74057422
Ti     -3.98190542     4.44584567    -3.80223129    -0.05090365    -0.52725290     0.57879155
Ti     -1.88124817     0.01948153    -2.07456211     1.59864076    -1.57923532    -0.09242211
Ni     -5.95524109     2.42523048    -8.08374304     0.83731616    -0.96694828     0.25109590
Ni     -5.97609317     1.99959327    -4.10531666     0.47147424     0.49140077     1.92500478
Ni     -9.73461400     6.64574606    -7.93503518    -0.07637446     0.28607385    -0.44721065
Ni     -9.80003850     6.57021750    -3.99803599     0.76890942    -1.14811539     0.14800620
Ni     -1.96260873     2.07508324    -7.88057003     0.12080220    -0.12815386    -0.82878654
Ni     -5.82103270     6.59955010    -4.02015586    -0.94178425    -0.04980437     0.20898256
Ni     -5.98445740     8.64724993    -5.95273412     0.57875032     2.28207383    -0.32651380
Mo     -5.95204465     0.11967847   -10.31022073     0.19474872     0.41090664     0.40271352
Mo     -9.71653096     8.69170552    -6.32362776    -1.61173563     0.89113910    -1.65660093
O      -2.01067897     1.90567090    -1.94121522     0.30077494     0.11898975     0.33793149
O      -2.05841722     1.79637174    -6.07103285     0.53146245    -0.00829395     0.67515153
O      -6.00252166     6.72746133    -2.03982417     0.62851779     0.93521479     0.10716308
O      -5.92587072     6.89923253    -5.93542273     0.37728362    -1.68847503     0.31603638
O      -6.01434992     2.09228150   -10.09326012     0.45384057    -0.88416153    -0.51271860
O      -6.01329465     1.97557482    -5.94621273     1.53162017    -0.88200409     0.05720404
O      -9.71075655     6.80447501    -9.84888101    -0.76326182     0.81457745    -0.17012086
O      -9.76854569     6.80196002    -6.06678831    -0.49987732    -0.56589610     0.32872990
O      -4.00387766     2.38775788    -3.92252686     0.06499941    -0.32707253    -0.74108615
O      -3.84980572     2.39864603    -7.88557446    -0.32751487     1.31277842    -0.87552327
O      -7.87256325     2.32687931    -3.92027433    -0.31561197     0.56715532    -0.85712004
O      -7.88909818     2.43739805    -7.96204457     0.16388902     0.45502622    -0.50057219
O      -3.74894833     6.41340746    -3.87059710    -0.70199398    -0.59172328    -0.99685259
O      -3.92560272     6.37143474    -7.96618726     0.01538653    -0.78660142     0.22328679
O      -7.88564898     6.28951552    -4.10215142     0.45387091     0.44559261     1.22397019
O      -7.76131336     6.48726777    -7.88726302    -0.86650320    -1.54536780    -0.80270030
O      -3.98523816     4.28713594    -2.05004304     0.33296557     0.50492313     0.57279970
O      -4.04515267     4.35736446    -5.84275294     0.21193352     0.10278622    -1.26475160
O      -8.01560365     4.30898390    -9.99212938     0.01165425     0.35002416     1.91676747
O      -7.97703571     4.33146446    -6.07661166     0.40814966     0.24919752    -1.26019258
O      -4.18037861     0.14923076    -9.89960805     0.64152227    -0.11199743    -0.45334909
O      -7.94373521     8.71164677    -6.17723395     0.40379066     0.05698467     0.12589929
O     -11.66896983     8.61140964    -6.23861789    -1.62227516     0.31066541     0.97668573
O     -11.65150491     8.71442070    -9.83142527     0.52156101    -0.15593097    -0.94973985
O      -2.05851210     4.05204113    -3.92786355     1.15546505     0.97248930    -0.75337183
O      -9.71297155     4.71459161    -3.93718686    -1.56121918    -0.33574710    -0.16491939
O      -5.91166705     4.67263689    -3.88912739    -0.42500245     0.08194058    -0.67459759
O      -5.75828084     4.33709812    -8.14028380    -1.55031583     0.71751163     0.77678637
O      -2.07402591     0.27451260    -4.01427124    -0.15956029    -1.18204969     0.96399669
O      -5.74743012     8.41954635    -8.02385663    -0.29963984     0.13837884    -0.65477550
O      -9.74759309     8.42173007    -4.18078065    -0.57868858     0.46452581     1.07251441
O      -5.95883039     0.58443381    -8.07428958     0.25382503     0.20209405     0.59906800
