# total energy = -630.89885721 eV

CRYSTAL
PRIMVEC
        0.00279571     0.02951795    -7.98606283
       -7.83802570     0.01298533    -3.99532603
       -3.92160916     8.71933433     0.00634407
PRIMCOORD
56 1
Li     -4.11615230     2.41831528    -1.89676706     0.37520390    -0.35312147    -0.14126854
Li     -3.85727634     2.43592957    -5.96306191    -0.30868877    -0.18989342     0.27196667
Li     -7.80873602     2.32076186    -9.86392411    -0.34594872    -0.07993108    -0.36849328
Li     -7.78006986     2.13936350    -6.02380255    -0.21321755    -0.02661650     0.52640330
Li     -3.82192765     6.50852445    -1.94873412    -0.26862423     0.01494652     0.40078422
Li     -3.87944297     6.66730951    -5.94723152    -0.34564059    -0.09993312     0.20307455
Li     -7.85958382     6.40288419   -10.10530315    -0.25234080     0.04543524     1.01424507
Li     -7.86889292     6.43120382    -5.83640104     0.36092471     0.09278253     0.03198728
Ti     -2.03534160     2.31096243    -3.95972522    -0.90869615    -0.19367845    -0.47068172
Ti     -5.97615836     6.62280031    -8.08157650     0.84464939     1.46677309     2.07695174
Ti     -7.84055131     4.39240125    -7.64127314    -0.03596730     0.52419636    -2.17582531
Ti     -8.01513484     4.28406738    -3.75694769     1.24490673    -0.10357424     1.55942180
Ti     -3.85795633     4.39583792    -7.69119597    -0.61050786     2.09225042     0.27990275
Ti     -4.10763751     4.48154070    -3.67916426    -0.38741132    -0.80943473    -2.17416845
Ti     -5.63871342     8.64778596    -2.14812825    -0.32411636     2.09549195     0.46176652
Ni     -5.87002746     2.22061885    -7.96059360     0.40187096    -0.47778534     0.10556609
Ni     -5.94669988     2.30974606    -4.12255753    -0.16941322     0.78446590     0.36761118
Ni     -9.80217279     6.46458292    -7.97121727     0.16408427     0.10170328    -0.45696237
Ni     -9.77085835     6.58118762    -3.93144419    -0.74840380     0.42118205     0.45082889
Ni     -2.10238462     2.10792094    -8.07695145     1.30818441    -0.91738607     0.48451896
Ni     -5.90770016     6.58016626    -4.02885023    -0.01735443     0.21839653    -0.15277863
Ni     -1.91963045     0.07561686    -5.94454546     0.84849935     0.39124752    -0.10605937
Mo     -5.81907125     0.04155933   -10.32914859    -1.76551030    -0.56496301    -0.85514631
Mo     -9.63134829     8.67731795    -6.30509599     0.19708428     0.44543440    -0.67540453
O      -2.02334688     1.90382711    -2.01641373    -0.00470243    -0.00120882    -0.51002240
O      -1.96914381     1.96549139    -5.91131815     0.29949343    -0.44426092    -0.25083113
O      -5.86766991     6.82179992    -1.98129203    -0.38284826    -1.48489611    -0.96961283
O      -5.79172692     6.95808245    -5.94123445    -1.00860743     0.08512575     0.23871922
O      -5.96837357     1.92711364    -9.89839256     0.68685827     0.17031946     0.98440885
O      -5.82425800     1.89030015    -6.11687693    -0.64478563     0.16734582     0.24699670
O      -9.82102923     6.81736089   -10.04498919     0.48376852    -0.84564984    -0.11754759
O      -9.81116341     6.81545119    -5.79657319     0.52691079     0.08298757     0.36869157
O      -3.94403248     2.40424398    -4.02419975     0.17952081     0.97509981     0.50992926
O      -4.00544117     2.52238243    -7.85680273    -0.83094773    -2.03422792    -1.18565270
O      -7.92319372     2.33714953    -4.10374234     0.61426399     0.44027385     0.42653103
O      -7.76010960     2.53550600    -7.89996559    -0.68479947    -1.30391069    -0.23064665
O      -3.89936593     6.36208581    -3.90648096    -0.29829583    -0.10997443    -0.10654601
O      -3.93223853     6.37155472    -7.86466906     0.70376039    -0.12764700    -1.12231095
O      -7.87340113     6.32566193    -3.90112186     0.20606551    -0.46890848    -0.98365037
O      -7.85584797     6.33371076    -7.86689935    -0.94150244     1.33610398    -0.65799980
O      -4.11982997     4.31262879    -1.96578774     0.14945994     0.33326766     1.43422654
O      -4.16428225     4.39231438    -5.94875652     0.61682653    -0.03796614    -0.28255558
O      -7.96613221     4.39520865    -9.91183626    -0.11639310     0.08326617    -1.71756900
O      -7.84183331     4.47663296    -5.93848200    -0.00248768     0.01918254     1.80262107
O      -7.98611990     8.60442115    -2.19705637     0.70456116     0.27229466     0.49023901
O      -7.88354278     8.71461440    -6.06902576    -0.02740616    -0.12725019     0.08782005
O     -11.66805589     8.61470557    -6.04376092     0.86427835     0.63544957    -0.47203460
O     -11.64825929     8.60188991   -10.04590361     0.22356953     1.03806523     0.09442191
O      -2.02792498     4.34567506    -3.91789679    -0.00364386    -0.06037415     0.05946544
O      -2.01419734     3.95015095    -8.11010292    -0.88760653     0.72248044     0.25059750
O      -6.04380351     4.16064253    -3.98055857     0.76245816     0.09225132    -0.05445276
O      -5.95932027     4.83327288    -8.08835346     0.88954645    -1.91882824     0.41479971
O      -1.96661830     0.35716923    -3.99933716     0.18887411    -0.17833962    -0.19825306
O      -1.98816736     0.04690295    -8.15076073    -0.51420881    -0.07378053     0.18192396
O      -5.85112194     0.49373098    -4.11503500    -0.28308086    -0.74452604    -0.64342229
O      -9.68921769     8.33925031    -8.12983738    -0.42415221    -0.19768059     1.33229470
