# total energy = -630.85916504 eV

CRYSTAL
PRIMVEC
        0.00285542     0.02004370    -7.95977623
       -7.82940539     0.00763210    -3.98158109
       -3.91729101     8.74642787     0.01461334
PRIMCOORD
56 1
Li     -3.76541161     2.37214553    -1.94303156    -0.77911216    -0.01836394     0.23117169
Li     -3.90512239     2.18402984    -5.79431197     0.20321274     0.26731726    -1.48104113
Li     -7.65516098     2.48181336    -9.91578170    -0.35470509    -0.25948631    -0.03237216
Li     -7.61134689     2.21379116    -6.08091890    -0.55628682     0.05335787     0.96608407
Li     -3.74711498     6.60391160    -1.96545806    -0.94713541    -0.38968034     0.40174197
Li     -3.84369413     6.44682697    -5.98098125    -0.30917601    -0.38156622     0.48286933
Li     -7.83956094     6.48173915    -9.85282054    -0.41541354     0.09005503    -0.12539980
Li     -7.87573009     6.42996620    -5.91234417     0.36197824     0.08254990     0.22758669
Ti     -1.95343472     2.08303083    -4.04153734     0.44183226     1.24845417    -0.55062538
Ti     -5.90493203     6.83330727    -7.94634174     0.87651360    -3.34770147     1.18774141
Ti     -7.97667287     4.41538570    -7.67592733     0.41015675     0.02240892    -2.21322765
Ti     -7.83982606     4.47521505    -3.66423419    -0.94958264    -1.43675337     0.48586341
Ti     -3.86667068     4.32345094    -7.74858626    -0.64827192     0.67275882     1.74028937
Ti     -4.03998441     4.33956417    -3.68487475     0.70728717     0.11793395    -0.26938219
Ti     -6.09599521     8.74132232    -2.07725649    -1.06940421     0.22481819    -0.03785102
Ni     -5.78410021     2.36886442    -7.98206401    -0.39693196    -0.11115544    -0.34408061
Ni     -5.84704660     2.25536669    -4.02456726    -0.42039671    -0.36696951     0.58297538
Ni     -9.82375722     6.58321409    -7.86807093     0.02211516    -0.27259479    -0.54054933
Ni     -9.71552945     6.57714701    -3.95134915    -0.55870346    -0.66512816    -0.21742571
Ni     -1.93383219     2.12271064    -8.01618239     0.82881619    -0.23591420     0.93946114
Ni     -5.82751937     6.53249988    -3.86177858    -0.09989419     0.09305657    -1.30045325
Ni     -6.00149103     8.67808867    -5.93129042     0.65865231    -1.33129923     0.06482078
Mo     -6.00710449     0.13634563   -10.27962868     0.41840182    -0.10623855    -0.32559761
Mo     -9.74142491     8.68697996    -6.38195291    -0.32266647     0.15493290    -0.66246002
O      -1.98238028     1.93889812    -1.99943005     0.78857670    -0.56965962    -0.29668114
O      -1.96592348     1.70567513    -6.02842186    -0.28183021     1.61242185     0.57526434
O      -5.91681216     6.84054681    -1.94064969     0.41912588    -0.71144727    -0.35184025
O      -5.96007918     6.79700995    -5.86645058     0.50963836     0.59091016    -0.39346288
O      -5.69131255     2.06597686   -10.02714337    -1.09718428    -0.56510894    -0.61275989
O      -5.71724145     1.86672387    -5.88164894    -1.05947089     0.40049357    -0.59258376
O      -9.76305498     7.01117522    -9.75937890    -0.55963562    -0.22243170     0.05329064
O      -9.75738167     6.79359306    -5.97610295     0.32715267    -0.64056868    -0.06069857
O      -3.88649866     2.35136415    -4.01769526    -0.06848728    -0.28178755     0.94900442
O      -3.82624067     2.40851251    -7.95315451     0.12372634    -0.11866560    -0.06675522
O      -7.78696346     2.38093778    -3.90580158    -0.32258258     0.76256779    -0.51120271
O      -7.88711946     2.47128283    -7.95728385     0.39502409    -0.83956184    -0.13105814
O      -3.87626127     6.21382653    -3.95593593    -0.08316452     1.63663345     0.11339955
O      -4.01751954     6.33939829    -7.91452589     0.02916892     0.59243120    -0.12125149
O      -7.74366662     6.36572634    -3.95978237    -0.22353341     0.15735051     0.54804951
O      -7.87012860     6.35552658    -7.96089667     0.17320864     0.31785022     0.56875713
O      -3.95663471     4.42318892    -1.92401251     0.56567726    -0.27657074    -0.30632295
O      -3.85145324     4.37813937    -5.95012848    -0.26739485    -0.04681523    -0.81946942
O      -7.86860804     4.37469371    -9.83134748     0.13345380     0.41557461    -1.38681205
O      -7.88252896     4.36488622    -5.97927354     0.21276994    -0.06787132     2.14848007
O      -7.95322847     8.74560578    -9.94513004     2.12981815     0.36737412    -0.26358508
O      -7.92870427     8.65332430    -6.15971571     0.49771077     0.04793010     0.23195996
O     -11.50714036     8.70300172    -5.95532903    -0.44526077     0.18724024    -0.49352847
O      -7.74783629     0.14258753   -10.12411811    -0.28817144    -0.29217242     0.16494057
O      -2.07020854     4.15585932    -4.00489766     0.97523897    -1.08018538     0.17958890
O      -9.75710814     4.66491274    -3.91226453     0.38408693     0.33767767    -0.54455766
O      -5.92026079     4.20391781    -3.90102325    -0.00295849     0.56217958    -0.65164627
O      -5.85889710     4.24776673    -7.97706921    -0.10253267    -0.16801137     0.28632959
O      -1.84681848     0.03603923    -3.95380841    -0.45461511     1.39730710     0.13157959
O      -5.81332799     8.55453969    -8.01076641    -0.18813126     2.10966008    -0.11393228
O      -9.72070277     8.47492818    -4.11399983     0.22406868     0.06683851     1.10909716
O      -5.95864978     0.53144718    -8.19884357     0.34688353     0.10955373     1.42671722
