# total energy = -630.31711026 eV

CRYSTAL
PRIMVEC
        0.00279571     0.02951795    -7.98606283
       -7.83802570     0.01298533    -3.99532603
       -3.92160916     8.71933433     0.00634407
PRIMCOORD
56 1
Li     -3.97823346     2.10718418    -1.98751263     0.49363263     0.36671429     0.18689852
Li     -3.87520015     2.09247851    -6.03752936    -0.06475560    -0.12646250     0.40943540
Li     -7.76332299     2.49078859    -9.90773049    -0.27865850     0.15276439    -0.15826743
Li     -7.71445532     2.10484206    -6.07424984    -0.05512812     0.43896779     0.67756361
Li     -3.76627329     6.19599235    -1.90123293    -0.12648538    -0.21933089    -1.18075401
Li     -4.00546200     6.51978138    -5.76906772     0.62469477    -0.19700416    -0.06850960
Li     -7.96202345     6.62184602   -10.14362636     0.48384946    -0.01084505     1.47130166
Li     -7.77004285     6.51837177    -5.95354528    -0.21547106     0.13526603     0.18367200
Ti     -1.90644472     2.15304773    -4.01128427     0.24194133    -0.56478242    -0.11089672
Ti     -5.66997354     6.68796454    -8.07920958    -2.19299973    -0.38084100     0.08172468
Ti     -7.90629878     4.48354508    -7.74614289     0.82869520    -0.74166438     1.44058335
Ti     -7.92643253     4.40266281    -3.81867415    -0.27085043     0.12056613     0.46835815
Ti     -3.93261467     4.32390690    -7.69433876     0.16652322    -0.35080521     1.18302328
Ti     -4.05989536     4.18683440    -3.89036334    -0.37002621     1.36951810    -0.66129843
Ti     -2.08314193     0.00931015    -1.99388307    -2.00428575     0.38536235    -0.95826034
Ni     -5.78958387     2.20027849    -7.98104902    -0.90379663     1.74154137    -0.07242084
Ni     -5.99277798     2.13497289    -3.91847721     1.10195689    -0.36144019    -1.17588108
Ni     -9.79029024     6.68428090    -7.99415431    -0.63329109    -0.16795277     1.10843337
Ni     -9.76286382     6.53001967    -3.97517212    -0.94272138    -0.29528225    -0.45900206
Ni     -1.87085732     2.09915251    -7.94864928    -0.43742055    -0.20276355    -0.06259773
Ni     -5.91610426     6.56244243    -4.03002462     0.71820821     0.77416825     0.21041826
Ni     -5.94390039     8.73998575    -5.90489009     0.07613128     1.85636788    -0.20010321
Mo     -6.10822175     0.15867430   -10.32733108     1.62985332    -0.47261568    -0.29223065
Mo     -9.81385075     8.69271453    -6.33232342     0.84168223    -0.89444037     0.87661585
O      -1.77877321     1.88101335    -1.93639085    -0.75137932     0.59229057    -0.22091732
O      -1.91961103     1.88477741    -5.95999655    -0.23963956    -0.01388017    -0.15967240
O      -5.85489624     6.79387822    -2.10005688     0.19717930    -0.23363677     1.83746629
O      -5.83375909     7.03408004    -5.98206803    -0.33799577    -3.22166787    -0.12775709
O      -5.87476935     2.00588654   -10.01242195    -0.79659494     0.92595828    -0.15983571
O      -5.78957418     1.90613748    -5.83546253    -0.62298104     0.14756868     0.00381964
O      -9.81502801     7.04030430    -9.85824437    -0.05786832    -1.06122476     0.20953505
O      -9.79104533     6.71844493    -6.01210116     0.37470947     0.93741480    -0.74427718
O      -3.89660954     2.24294108    -3.98884115    -0.18187981     0.35979190    -0.04992995
O      -3.90802781     2.45950236    -7.97616059     0.64734269    -0.71978818    -0.03082419
O      -7.87004645     2.43329074    -3.95618602     0.40833708    -0.28118898     0.14216312
O      -7.72748982     2.35169574    -7.98401438    -0.35354477     0.71184286     0.03832905
O      -3.79140334     6.30229618    -3.88317769    -0.13795384     0.04100431    -0.69218268
O      -3.84977166     6.31095910    -8.00278319    -0.51473340     0.96826582     0.19344531
O      -7.95800848     6.38416713    -3.90236078     1.27274182    -0.06077391    -1.33784766
O      -7.84766683     6.34560208    -7.94553850     0.23830427     0.43549944    -0.33853307
O      -3.88921377     4.23274865    -2.17841550     0.26548989     0.18808399     2.23321497
O      -3.72220059     4.37524409    -5.90062540    -0.63713882     0.09626530    -1.27075153
O      -7.71191535     4.44941195   -10.02312215    -0.17916192    -0.34797580     0.17034868
O      -7.80299652     4.38874413    -5.90887631     0.06461067     0.10029807    -2.18196535
O      -4.04780855     0.21549464    -9.98248138     1.01623328    -0.79433853     0.10952231
O      -7.93931675     8.69353844    -6.08817054    -0.28340081     0.05347773    -0.36670769
O      -7.68584743     0.08546806    -6.02047273     0.51398440    -0.59973306    -0.13259345
O      -0.02518832     0.05300904    -6.03351109     0.46709313     0.37858321    -0.43321110
O      -1.90090373     4.02296686    -3.98614004    -0.32814280    -0.19355161    -0.25014945
O      -9.86735184     4.64816330   -11.87545190     1.07556899     0.23122916    -0.77365054
O      -5.90298324     4.66244894    -4.13818734    -0.15580759     0.24239887     0.15688622
O      -5.85511310     4.51442776    -8.03470471     0.60129674     0.31926136     0.52520164
O      -2.06663125     0.06410591    -3.89326182     0.62427167     0.40857687    -0.64817759
O      -5.84167182     8.56148460    -8.05628448     0.26109078    -1.02819575     0.16690082
O      -9.65733627     8.44284259    -4.11653227    -1.07765293    -0.35126948     1.00849484
O      -5.89606260     0.41840771    -8.14581776    -0.05979345    -0.51094427     0.09792905
