# total energy = -630.28869531 eV

CRYSTAL
PRIMVEC
        0.00279571     0.02951795    -7.98606283
       -7.83802570     0.01298533    -3.99532603
       -3.92160916     8.71933433     0.00634407
PRIMCOORD
56 1
Li     -4.02047965     1.93231897    -2.07191660     0.16979869     0.67284578     0.34518598
Li     -3.77370767     2.44148802    -6.04910628    -0.44848109    -0.18757170    -0.05965355
Li     -7.93958322     2.56777915   -10.04564284     0.57186200    -0.98483032     0.31021934
Li     -8.01991051     2.32862531    -5.90753203     1.46755673     0.66219022     0.14842217
Li     -3.99020192     6.72330656    -2.02061976     0.43068343    -0.72240925     0.16430414
Li     -3.96680493     6.42485810    -5.93694873     0.21483227    -0.36397449     0.21122111
Li     -7.95815088     6.65986448   -10.00164411     0.33465891    -0.04396742     0.35177807
Li     -7.87018116     6.30302753    -5.85166119    -0.08426263     0.34338786     0.30097174
Ti     -1.84376670     2.07809186    -4.05005871    -2.29377805    -0.65982742    -0.36418212
Ti     -5.90974825     6.56398333    -7.97353242     0.45423962     0.35951302     0.26333105
Ti     -7.93151421     4.48585764    -7.76690815    -0.24374043    -0.66527066     1.71344466
Ti     -7.74946586     4.38179775    -3.70231845    -1.39861010     0.78860933    -0.66965502
Ti     -3.88887740     4.33498793    -7.95852043     0.97999563    -0.49622167     2.23302521
Ti     -4.05180036     4.33100990    -3.71738891     0.88326086    -0.23259313    -1.53696451
Ti     -1.77082412     0.07993827    -1.92733042    -2.74104366    -0.14205738     0.42698167
Ni     -5.93293496     2.18892707    -8.01793966     0.52329995    -0.23706078    -0.10695509
Ni     -5.88212539     2.16891956    -4.10564271     0.11425489     1.81302888     0.28001773
Ni     -9.82893513     6.51137108    -7.93698212    -1.61915834    -1.64341872    -0.39726995
Ni     -9.87401714     6.67308767    -3.88716937     0.32821604    -0.19320475    -0.84957343
Ni     -1.93029041     2.11327058    -7.99578452    -0.50436911     0.91795602    -0.24680223
Ni     -5.88850513     6.58295788    -3.94667570    -0.02371090     0.28161776     0.14688028
Ni     -5.74398701     8.72649083    -5.94270881    -1.01775686     0.78606136     0.00209483
Mo     -5.97159700     0.04826745   -10.31827936    -0.19272333    -0.52690871     0.52066924
Mo     -5.79886261     0.07226805    -6.34846332     1.99819955    -0.08180254    -0.58897736
O      -1.91152770     2.02087659    -2.06972472    -1.29529314    -0.98471924     0.35427922
O      -1.92368361     1.92476552    -6.05735893     0.21419652    -0.65063717     0.67252354
O      -5.94186409     6.81308546    -1.88568660    -0.09916445     0.26972244    -0.60907384
O      -5.88533614     6.91536535    -5.77006903     0.03620377    -0.16380885    -1.18487964
O      -6.01142407     2.00840140    -9.95066752     0.33079900    -0.34737619     0.73777224
O      -5.88953915     1.99231293    -6.10390346    -0.42422461    -0.62301971    -0.08712096
O      -9.86669861     6.77466988   -10.02963438     0.10544591     0.58351813     0.06687106
O      -9.85614766     6.83689819    -5.79916975    -0.15638816     1.14891938     0.09248518
O      -3.95950829     2.34843837    -4.05666333     1.00860735     0.39352155     0.30104066
O      -4.00435614     2.39691635    -8.11113904    -0.57568870    -0.13118262     0.15347575
O      -7.71102776     2.44655368    -3.99400557    -1.13557283    -0.63216248    -0.08119047
O      -7.89643693     2.40896669    -8.00120294     1.31478818     0.26153732     0.05788583
O      -3.98008351     6.26705232    -4.00936906     0.05020477     0.23394518     0.16335677
O      -3.96879255     6.39115578    -7.88308822    -0.05378059     0.27362338    -0.62388722
O      -7.78040247     6.37552429    -3.90974044    -0.79762853    -0.50929610    -0.11122644
O      -7.93365669     6.39784094    -7.85075288     0.35142503     0.32869763    -0.42748828
O      -4.09779397     4.51884898    -2.02201750     0.24206211     0.03132762     2.01890608
O      -3.67575393     4.29850009    -6.16050882    -0.95804487     0.64578888    -0.86177682
O      -7.74039328     4.39460638    -9.89590782    -0.36423865     0.28436958    -0.34726529
O      -7.81777654     4.34898070    -5.96044975    -0.06719154     0.14031829    -1.61137864
O      -4.16207392     0.12511501    -9.88418838    -0.51866384    -0.80787651    -0.50250383
O      -4.03032502     0.04029142    -6.29095568    -1.69636202     0.11256663     0.55772255
O      -0.06334759     0.02531176    -1.85685400     2.95840195     0.07267265    -0.29286173
O      -7.79891107     0.08585449   -10.12555707     0.74468874    -0.38358716     0.06162568
O      -2.05236753     4.40924244    -3.92605064     0.94042292    -0.12360081    -0.28985051
O      -1.92199097     4.00613485    -0.14497121     0.47988621    -0.05057815     0.20879106
O      -5.89504365     4.18506925    -4.07922924    -0.07050179    -0.56297837    -0.35059511
O      -5.95572754     4.68229710    -7.88237286     0.57799954     0.35196964    -0.41670567
O      -1.83853571     0.17453510    -3.93591525    -0.43783155     1.11272333    -0.12204804
O      -6.00897482     8.59748901    -7.91283647     0.58027907     0.24247801    -0.83558549
O      -5.87412804     0.35801228    -4.14736743     0.18847427    -0.82551048    -0.66093314
O     -10.14025900     8.26570057    -8.09979593     0.72585288     1.09272730     1.35309315
