# total energy = -630.81540074 eV

CRYSTAL
PRIMVEC
        0.00285542     0.02004370    -7.95977623
       -7.82940539     0.00763210    -3.98158109
       -3.91729101     8.74642787     0.01461334
PRIMCOORD
56 1
Li     -4.05386730     2.17360969    -1.82598186     1.18416224     0.24333406     0.00774891
Li     -3.94062416     2.00625541    -5.89319771    -0.13075946     0.09355181    -0.18981144
Li     -7.90840250     2.49091992   -10.01138270     0.32289330    -0.84382632     0.50297107
Li     -7.83005270     1.97705937    -5.90881907     0.57184689     0.34827124    -0.01178808
Li     -3.91808809     6.26408684    -2.00749614     0.01452496     0.70820811    -0.13497184
Li     -3.87884823     6.37491043    -5.86737734    -0.30997244     0.23234146     0.09928286
Li     -7.90756999     6.43953137    -9.86679358     0.00179073    -0.03088824    -0.17457815
Li     -7.76009308     6.40898619    -5.73611604    -0.40192072     0.16758949    -0.47825301
Ti     -1.99342422     2.13979459    -3.98577269     0.72238464     0.68299980    -0.60170744
Ti     -5.90735348     6.68805731    -7.98661311     0.88678414     1.02234606     0.26548036
Ti     -7.77949362     4.35730858    -7.74280152    -0.49832798    -0.42306394    -0.92053550
Ti     -7.76253844     4.35455619    -3.73750292     0.73249613     0.64306150     0.23913850
Ti     -3.77973986     4.29038991    -7.64561057     0.19368222     2.25577297     0.74934186
Ti     -3.89172685     4.37409848    -3.76460978    -0.29357589     0.17843732     0.02777097
Ti     -6.12463649     8.74621020    -2.11142467    -0.71149055    -0.27577581     0.40432550
Ni     -5.86390479     2.42192380    -7.85407939    -0.56058735    -0.94612696    -0.53778700
Ni     -5.81594665     2.18932045    -3.99147400     0.14850195    -0.44371788    -0.32010738
Ni     -9.73511836     6.65469781    -7.89914159    -0.66017041    -0.57552418    -0.62517263
Ni     -9.86268931     6.40960418    -3.89747962     1.06918399     1.21600566    -0.84887024
Ni     -1.84006947     2.09396793    -7.93456010    -0.43390621     0.01163584    -0.13684352
Ni     -5.97829275     6.67935266    -4.01484261     1.31691147    -0.23958771     0.13761017
Ni     -2.03457681     0.07135324    -6.04259417    -0.07077890     0.12414509     0.05531220
Mo     -6.02733487     0.11251150   -10.21083935     0.28219747     0.39211316    -1.44886366
Mo     -9.79483282     8.56785746    -6.33351897     1.53859517     0.94797461     0.55865617
O      -1.91460191     1.90068624    -1.88079870     0.09341956     0.00177515    -0.98614425
O      -2.03888968     1.91851096    -6.06516093     0.81142354    -0.14559392     0.49820924
O      -5.84074211     6.84555722    -2.12801496    -0.43059609    -0.18131670     1.13118041
O      -5.90960779     6.97760054    -5.94630282     0.36567660    -0.51015079    -0.63103919
O      -5.79201203     2.04965095   -10.03736499    -1.26169299    -0.42631416    -0.12512838
O      -5.80083086     1.99065029    -5.86304859    -0.83404048    -0.59893321     0.09338673
O      -9.77289227     6.91409825    -9.81870689    -0.41625701     0.42249985     0.60865298
O      -9.72270880     6.67622978    -6.04192506     0.08692034     0.36916039     0.51930052
O      -3.88304996     2.31915446    -3.96377416    -0.51764906     0.75537407     0.32852509
O      -3.93839549     2.51013084    -7.77565253     0.09532790    -2.12523664    -1.29052116
O      -7.69056664     2.44149291    -4.01960069    -0.72450253    -0.14895801     0.43076454
O      -7.79845002     2.37570400    -8.02557254    -0.03795806     0.40346968     0.75550425
O      -3.80162667     6.37159089    -3.97241229     0.37790380     0.11116018     0.28619979
O      -3.99320244     6.28936500    -8.11595631    -0.19714049     0.28220301     1.75246093
O      -7.86172940     6.44681428    -3.78547477    -0.56392571    -1.07970580    -1.02480994
O      -7.81850545     6.51213790    -7.89105460     0.20497994    -1.48518172    -0.53530721
O      -3.76750807     4.44812881    -1.99673947    -0.42168065    -1.02736684    -0.46820190
O      -3.96545108     4.46737711    -5.85823675     0.52491328     0.15027884    -1.51560379
O      -7.84028459     4.31438973    -9.91533160    -0.00533320     0.84533074    -0.38215677
O      -7.87718511     4.33760124    -6.03456720     0.04225015     0.51531751     1.41547729
O      -4.04034690     0.11289649    -2.08878868     0.28397954    -0.21289797     0.50819842
O      -4.01555582     0.06979749    -6.07818521    -0.58554832    -0.62179419    -0.01700673
O     -11.52302680     8.66149820    -5.98082459    -0.90190176     0.50384071    -0.07847233
O      -7.78486253     0.18511320   -10.02944881    -0.30479158    -0.39124941    -0.11946703
O      -1.91613250     4.03054654    -4.06724818    -0.55949404     0.40327765     0.09708684
O      -9.66476534     4.54652610    -3.98624727    -1.75987139     0.15669101     0.23625232
O      -5.86751226     4.73609856    -4.01454635    -0.02372694    -0.03646358     0.04105543
O      -5.84684172     4.37566487    -7.99984311     0.22189370     0.06125633     0.21623739
O      -2.12131138     0.21342242    -4.02712911     0.82837171    -0.34958129     0.21301880
O      -5.95295027     8.58627715    -8.12130202     0.53313536    -1.12989918     0.64619617
O      -9.80616751     8.43587560    -4.03660897    -0.23947221    -0.42188577     1.12879297
O      -5.92365374     0.55237550    -8.04846704     0.32280800     0.14869595    -0.38066886
