# total energy = -630.60975056 eV

CRYSTAL
PRIMVEC
        0.00285542     0.02004370    -7.95977623
       -7.82940539     0.00763210    -3.98158109
       -3.91729101     8.74642787     0.01461334
PRIMCOORD
56 1
Li     -3.87009334     2.14672659    -2.03293674    -0.24325305     0.40997949     0.65528882
Li     -3.85513828     1.91574475    -5.84588909    -0.40650915     0.38790398    -0.64207812
Li     -7.75529953     2.53698810    -9.84452914    -0.11427303    -0.21731689    -0.60945879
Li     -7.66310852     2.18406692    -5.88958736    -0.39014542     0.07653960     0.22509847
Li     -3.96772757     6.25052333    -1.88693234     0.50974683     0.13057818    -0.57196642
Li     -3.94313359     6.50680595    -5.80105619     0.11815500     0.04667237    -0.08649380
Li     -7.93788533     6.51160937    -9.91295227     0.20700773    -0.12542346    -0.25097189
Li     -7.69994601     6.61195281    -5.91597528    -0.42432177     0.05722641    -0.23516497
Ti     -1.91374616     2.18364087    -3.98892398    -0.24325772     0.21761994     0.24237111
Ti     -5.77036425     6.71201176    -7.94108799    -0.83924716    -0.29345609     0.25529542
Ti     -7.83753954     4.44822134    -7.69710282    -0.48699398    -0.13010988     0.97098048
Ti     -7.99597987     4.38612484    -3.78703695     2.38709008    -0.15381612    -0.16577899
Ti     -3.87343818     4.41442764    -7.61769207     0.01468367    -1.80008595    -0.89719168
Ti     -4.05098589     4.34402129    -3.80506173    -0.04618621    -0.48700128     1.20734485
Ti     -6.14779801     8.69149738    -2.03032342    -0.19833067    -0.28089483    -0.68100063
Ni     -5.85300065     2.49970012    -8.02505671     0.98105664    -0.01754802     0.45113410
Ni     -5.76439435     1.92455795    -4.02104112    -0.97396945     0.80231602     0.39874852
Ni     -9.77818897     6.39946384    -7.89088283    -0.09838569     0.48462532     2.01322528
Ni     -9.78237407     6.51682965    -4.08725628     1.00582919    -0.61075773    -0.11315119
Ni     -1.97041577     2.23586043    -7.93547855     0.41097166    -0.50200247    -0.00514324
Ni     -5.86766703     6.53371608    -3.90251087    -0.38614843    -0.27428939    -0.78424128
Ni     -2.00116000     0.07004088    -5.95062814     0.11433687    -0.17392022    -0.65832134
Mo     -6.08543145     0.10334803   -10.11108562     0.72178945     0.00824717    -2.21063091
Mo     -9.76551303     8.72572625    -6.43070465    -1.24906159    -0.42492044     0.51554540
O      -1.85362514     1.78104401    -2.05459259    -0.04808769     1.59459053     1.00551925
O      -1.97853020     1.93195216    -6.00873828     0.31311612    -0.37428995     0.29740969
O      -5.86431815     6.74319860    -1.96202264     0.03525276     0.32895349    -0.50388478
O      -5.85546794     6.97132721    -5.99165398     0.31676342    -0.27581633     0.76613240
O      -5.90136357     2.03141250   -10.08937395     0.44734783     0.07902827    -0.44189435
O      -5.76201806     1.90902107    -5.87047090    -0.19081885    -0.39028152     0.12040358
O      -9.84114060     7.10528323    -9.50697286    -0.24788040    -0.22060901    -1.61565157
O      -9.69145531     6.79565013    -6.04079439    -0.60696024    -0.40156163    -0.20108171
O      -3.87651072     2.25381167    -3.95800128     0.26478290     0.57360685    -0.17357823
O      -3.90374940     2.43164435    -7.98738798     0.23904233     0.97321153     0.43240945
O      -7.88758052     2.43406680    -3.91024128     0.06713930    -0.19673601    -0.54186851
O      -7.72470847     2.47297192    -7.81038033    -0.75369500     0.42963959    -1.29021550
O      -3.94339936     6.31103599    -3.91958948     0.79849558    -0.29651418     0.21016682
O      -3.87861367     6.44984857    -7.89735628     0.15925969    -0.77210267    -0.03795356
O      -7.81004312     6.38043391    -4.11803651    -0.17210333    -0.57698209     1.57911088
O      -7.72720004     6.37051385    -8.05314369    -0.95071648    -0.45267159     1.17990534
O      -3.81492178     4.21472288    -2.00026494    -0.15326834     0.77227128    -0.93118275
O      -3.68949470     4.34456691    -5.89455241    -0.26784526     0.29321365     0.79419634
O      -7.77333732     4.43869161    -9.97840521     0.24297873     0.19307216     0.58254273
O      -7.78913639     4.41859036    -5.92185437    -0.07625232     0.14264909    -1.19102527
O      -4.02273046     0.11221990    -9.87065165     0.56060601    -0.23099345    -0.31677938
O      -7.98730672     8.68766078    -6.05423175     1.33476990     0.28647359    -0.31757888
O     -11.54297976     8.71673722    -6.10882614     0.45654486    -0.18296676     0.48325997
O      -7.83921581     0.15497368   -10.16921778    -0.26918133    -0.25002995     0.37978042
O      -1.94936315     4.14500248    -3.99188239     0.93331256    -0.36696484    -0.00486458
O      -9.79494472     4.59326817   -11.82466479    -0.70597678     0.93527057    -1.08911109
O      -5.85629428     4.42097630    -4.15746983    -0.61941699     0.47805977     0.64189688
O      -5.74971831     4.44344437    -7.86697851    -1.36326739     0.08877405    -0.23894200
O      -2.01761294     0.22017328    -3.99036848     0.41593126    -0.30179071    -0.20203645
O      -5.87991598     8.51292695    -8.03054809     0.20404709     0.73543218     0.13832640
O      -9.61162792     8.33349118    -3.99758546    -0.99404350     1.32554065     1.37236035
O      -5.99918726     0.70583058    -8.15793662     0.49687075    -0.92725866     0.14253373
