# total energy = -630.78466708 eV

CRYSTAL
PRIMVEC
        0.00285542     0.02004370    -7.95977623
       -7.82940539     0.00763210    -3.98158109
       -3.91729101     8.74642787     0.01461334
PRIMCOORD
56 1
Li     -3.96050001     2.14948992    -1.90281050     0.00893667    -0.06468929    -0.12060013
Li     -3.90541523     2.17293362    -6.06199379    -0.02422361     0.20354124     0.21304777
Li     -7.73651030     2.03300286    -9.92355443    -0.50460006     0.23439284     0.02380619
Li     -7.91334859     2.18691279    -5.88362516     0.82853388     0.12503845    -0.28139962
Li     -3.93714804     6.37344404    -1.94226142    -0.11557264     0.15968233     0.10383777
Li     -3.92365525     6.46425812    -5.78917541     0.10302763     0.04245732    -0.46489566
Li     -7.76019024     6.46100494    -9.91979820    -0.90956067    -0.01663877     0.08729855
Li     -8.06512145     6.30001407    -5.75131773     0.88910560    -0.00529563    -0.50265233
Ti     -2.00578130     2.24536843    -4.04249589     0.44138325     0.24174085    -0.38848794
Ti     -6.00151589     6.79617164    -7.82891435     1.28897173    -0.04951284     0.23036595
Ti     -7.86027944     4.40432885    -7.77272885     0.00400145    -0.46975119    -1.22957563
Ti     -7.75743823     4.29955012    -3.70954798    -0.34274554     0.16098320    -0.12678256
Ti     -3.94274540     4.44641361    -7.72294913     0.25677397     0.36584698    -0.20288827
Ti     -4.00481476     4.35653436    -3.74792529    -0.04947266     1.26526369     0.06325427
Ti     -5.69005615     8.69295844    -2.00557150    -0.12897843    -0.13506749    -0.88332308
Ni     -5.83200159     2.42563255    -8.02092188    -0.87537368    -0.10053331    -0.23511436
Ni     -5.87933794     2.14551044    -4.04198453    -0.05015449     0.78683055    -0.00749234
Ni     -9.92567926     6.53207817    -7.93211331     0.45178540    -0.06866919     0.14445988
Ni     -9.80619534     6.39949972    -3.92868060    -0.43779451    -0.18656042     0.25595478
Ni     -1.97704577     2.42738374    -8.06019281    -0.04513325    -0.70129765     0.26393903
Ni     -6.00249690     6.75444704    -3.93870957     0.83498241    -0.89782795     0.46138756
Ni     -5.83141468     8.72474827    -5.88087063     0.80409136     0.09992674     0.50827301
Mo     -9.81892898     8.71550420   -10.14336822     0.77548218    -1.82856041     2.49763087
Mo     -9.71036351     8.65242293    -6.43247958    -1.20478235     0.19267010     1.20802848
O      -1.97172377     1.83090601    -2.04985175    -0.25127076     1.16678755     1.00546551
O      -1.87002805     1.82292192    -5.91914083    -0.44687864     0.06697720    -0.66447170
O      -5.92763460     6.73651831    -1.91150110    -0.01818882     1.03732273     0.03440914
O      -5.81645305     6.85778780    -5.78962768    -1.19765292     0.29813865    -0.87389106
O      -5.87096872     2.05962152   -10.11805803     0.02822929    -0.37713789     0.53105347
O      -5.87642750     1.85410073    -5.91122629    -0.10542677     0.01937609    -0.52845314
O      -9.79359802     6.71132598    -9.89471099     0.26095676     0.74740740     0.11484536
O      -9.82782744     6.76233871    -5.96815148    -0.74141479     0.57864703    -0.27233070
O      -3.91025779     2.40292276    -4.05788273    -0.23182653    -0.66499146     0.40249795
O      -3.99230010     2.50262287    -7.95119869     1.23926523    -0.23489500    -0.27567790
O      -7.84008754     2.35168327    -3.93022797    -0.55892254     0.25307354    -0.49174659
O      -7.73657644     2.48152569    -7.92047355    -0.93341955    -0.27914052    -0.43213592
O      -4.06144100     6.39430169    -3.92996939     0.78371029    -0.57077168     0.31449749
O      -3.92147203     6.45642176    -7.90211925    -0.78459647    -1.08895388     0.05360627
O      -7.91680661     6.27063211    -3.89841082     0.30486341     0.66451070    -0.49129980
O      -7.88303024     6.44491362    -7.82958725     0.24775113    -0.14703627    -0.50100187
O      -3.88646212     4.46503654    -1.99766165     0.12006409    -0.46524478    -0.27402585
O      -3.76788332     4.35656143    -5.97215700    -0.43242493     0.39801835    -0.16714169
O      -7.88425716     4.49563150    -9.94057976     0.08194484    -0.24614990     0.41734151
O      -7.65488501     4.41385226    -6.06983790    -0.56425599     0.17612100     1.84273221
O      -7.99546115     8.75909620    -9.77688308     0.42494782    -0.44427268    -0.76477439
O      -8.02219743     8.63554839    -6.04004320     0.83414860     0.24235433     0.13370070
O     -11.69064883     8.71386324    -6.03134718     0.31122874    -0.19343295     0.15839591
O     -11.61572197     8.52995626    -9.86929901     0.02495089     1.13191349     0.30301838
O      -2.03982912     4.16285607    -4.12124539     1.33185154     0.20383992     0.83838211
O      -1.96814999     4.27933183    -0.31731256     0.69095785     0.41037682     1.08768330
O      -5.85776030     4.18805049    -3.96683160    -0.98693244    -0.61408185    -0.46608821
O      -5.86082689     4.35432096    -8.07530852    -0.16976543     0.37443205     0.33658386
O      -1.89135781     0.34599312    -3.97178362    -0.44065848    -2.02353385     0.27305662
O      -5.77438343     8.61215663    -7.83342205    -0.67363963    -0.51617102    -0.71323570
O      -5.95764422     0.22029566    -3.90538539     0.34830365     0.67944035    -3.07062202
O      -5.84024698     0.60182122    -8.14738885    -0.33468898    -0.14276774     0.56778584
