# total energy = -630.88259242 eV

CRYSTAL
PRIMVEC
        0.00279571     0.02951795    -7.98606283
       -7.83802570     0.01298533    -3.99532603
       -3.92160916     8.71933433     0.00634407
PRIMCOORD
56 1
Li     -3.96895810     2.50002174    -1.75976645     0.29979167    -0.23860495    -0.49423842
Li     -4.01285721     1.93173156    -5.97961444     0.50470042     0.19672621    -0.07374827
Li     -7.82475205     2.20142602   -10.00091988     0.30201976     0.33005865    -0.04192654
Li     -7.84935219     2.28257945    -6.07114069    -0.01895864    -0.27223875     0.94228824
Li     -3.95992490     6.47413905    -2.10869607     0.06352649     0.04649020     0.80545004
Li     -3.92277926     6.72750761    -5.84970589    -0.38753575    -0.56997186    -0.42131182
Li     -7.96280984     6.56125748    -9.98652627     0.32912944    -0.12360237    -0.04688471
Li     -7.89879414     6.31839022    -5.76092756     0.09500986     0.53629743    -0.94613009
Ti     -1.97693468     2.18005415    -4.14997669    -0.22562879    -0.49553080     0.45501824
Ti     -5.94697522     6.54308518    -8.11349320     0.99818351     1.45567143    -0.32155775
Ti     -7.77086467     4.31556591    -7.67822839    -0.11613652     1.53347573    -2.28419544
Ti     -7.86164541     4.37878022    -3.67374102     1.00215133    -0.93069461    -0.15772526
Ti     -3.73252287     4.38060806    -7.71560592    -0.50450670     0.71196616    -0.95977881
Ti     -3.92361080     4.42911870    -3.79351311    -0.38077683     0.05173509     0.19657352
Ti     -2.27558539     0.12118143    -2.00927689     0.49208442    -1.52033694     0.47599345
Ni     -5.87445254     2.13836467    -7.91021548     1.35879940     0.12922962     1.21623486
Ni     -5.86246521     2.34389526    -4.12327840     0.77422194    -0.73127884     0.20108698
Ni     -9.78202896     6.37529818    -7.99901335    -0.48809141    -0.33584243    -0.28167320
Ni     -9.77711359     6.77196449    -4.01885334    -1.31423123    -0.68283534     1.01236094
Ni     -1.85246667     2.13358784    -7.97821959    -0.53034579    -0.89853117    -0.33228063
Ni     -5.90070818     6.47084999    -4.06512703    -0.23109212     0.81756508     0.60432003
Ni     -5.94800166     8.72074566    -6.01999403    -0.46372937     0.38186474     0.31285025
Mo     -6.02252446     0.08788166   -10.22983357     0.93473158    -0.34613675    -0.49550722
Mo     -9.88458795     8.72993971    -6.26702953     1.87075839    -0.12764820    -1.33871754
O      -1.95807674     1.92427450    -2.03631522     0.25416883     1.44288797     0.33216593
O      -1.94285477     1.93485359    -6.06572373     0.09480032    -0.53562029     0.91168435
O      -5.87417768     6.81633684    -2.11043572    -0.39448880     0.33990685     0.31161249
O      -5.94415215     6.87174257    -5.91904555     0.18116089     0.31801759    -0.39118395
O      -5.75067461     1.85055800    -9.67286367    -1.25404816     0.61684399    -0.84767175
O      -5.90586926     1.96079074    -6.06650504     0.27793931     0.31315802     0.33598029
O      -9.86708378     6.88801807   -10.09778088     0.70704821    -0.26687147    -0.33659087
O      -9.88470337     6.85871467    -5.80995839     1.02587282    -0.54704447    -0.32551753
O      -3.87255413     2.45865025    -3.99501238     0.18940044    -0.20884962    -0.55315990
O      -3.92464732     2.40738911    -7.82040826    -0.77600550     0.35012214    -0.73530440
O      -7.73954379     2.38368026    -4.04118162    -0.12069250     0.07280121     0.37753785
O      -7.74299822     2.44818615    -8.00718528    -0.96674948    -0.88415024    -0.14529078
O      -3.93207321     6.38171664    -3.96202094    -0.02999856    -0.76414364    -0.30076013
O      -3.85187699     6.38905007    -8.10983795    -0.33548476    -0.01918905     0.78313207
O      -7.87799150     6.28082999    -3.95224450     0.41010342     0.54533098     0.15886550
O      -7.85634934     6.36099817    -8.06768534    -0.47106911    -0.46723420     0.68534484
O      -3.85701963     4.43670384    -2.02076483    -0.31621804    -0.21279778    -0.02333807
O      -3.84352639     4.62610955    -6.03264036    -0.05046963     0.05561892     1.53888347
O      -7.65906636     4.39640392    -9.91717647    -0.26438141    -0.25589385    -0.40829987
O      -7.75443968     4.29878773    -5.97179538    -0.20365185     0.44032565     1.46312994
O      -4.06109477     0.11261228    -9.90280353     0.41857716    -0.94344946    -0.04780785
O      -7.91530149     8.71908520    -6.09684073    -0.83580092     0.30837759     0.11821218
O      -7.67140416     0.11700156    -5.95096316    -0.99896262     0.03443481     0.27423241
O      -7.78168317     0.07665799   -10.06529219    -0.83783463     0.23065359    -0.20175177
O      -9.73849536     4.32384681    -7.99194966    -0.14322515     0.18720445    -0.27812432
O      -1.86313704     4.00057529    -7.91039928    -0.30918522     0.17724064    -0.32712222
O      -5.83035765     4.16627711    -4.16200132    -0.39091015     0.53877481     0.50044267
O      -5.88311511     4.74816803    -7.96715984     1.09118398    -1.49009943     0.18241511
O      -1.90039655     0.32527911    -3.96207012    -0.29788737     0.01379280    -0.37701519
O      -5.91660467     8.54716432    -8.06981778     0.33808889     0.58383029    -0.14289079
O      -5.62304192     0.38545600    -3.99188859    -1.11586684     0.37183226    -0.12445548
O     -10.01843716     8.17462458    -8.02476703     0.85140424     0.63387854    -0.39654757
