# total energy = -630.82914163 eV

CRYSTAL
PRIMVEC
        0.00279571     0.02951795    -7.98606283
       -7.83802570     0.01298533    -3.99532603
       -3.92160916     8.71933433     0.00634407
PRIMCOORD
56 1
Li     -3.91993269     2.30258721    -1.93163051    -0.57733075    -0.28957150    -0.00029833
Li     -3.78911022     2.26075543    -6.00420707    -0.50366832     0.12882294    -0.04757320
Li     -7.87037415     2.24096312    -9.97228142     0.12893967    -0.22668411     0.22217623
Li     -7.70928653     2.20634594    -5.86079319    -0.47389108     0.18416047    -0.52616186
Li     -3.93639750     6.38441932    -2.06797632    -0.40281184     0.06795319     0.50328382
Li     -3.91833768     6.47364619    -5.91000675    -0.28822099     0.04289636     0.00251705
Li     -7.86862080     6.35651761    -9.90284676    -0.03694849     0.40304716     0.00855071
Li     -7.92504452     6.37478979    -5.96590482    -0.13561260     0.22266107     0.94651325
Ti     -1.96512418     2.43876719    -3.87009422     1.11540779    -0.75702562    -0.27237414
Ti     -5.91728778     6.75098574    -7.91472445     0.21977076    -0.12746519     0.03108882
Ti     -7.65274654     4.46170133    -7.65831774    -0.54132803    -2.90999770     1.46025426
Ti     -7.87249005     4.33112510    -3.69233857     0.10489423     0.30032234    -0.71188735
Ti     -3.83663841     4.45633401    -7.80836285    -1.17319496    -0.02419017     0.81142849
Ti     -4.17419581     4.40801105    -3.78372124     1.48197359     0.86606801    -0.07801441
Ti     -1.82719263     0.01793433    -2.16979323    -0.00911426    -0.30286406    -0.09905402
Ni     -5.82774204     2.21387101    -8.01057599    -0.84718858    -0.12764473     0.38371694
Ni     -5.89082946     2.18305120    -4.14412722    -0.05073382     0.01240425     0.91579136
Ni     -9.91603209     6.34732694    -8.05890189     1.03995243    -0.73351842     0.76354342
Ni     -9.82311215     6.50072890    -3.94375519    -0.60008915     0.38884450    -0.30296211
Ni     -1.99844155     2.26249665    -8.01423216     0.27969413    -0.33841165     0.64179387
Ni     -6.06640350     6.63975064    -3.92801925     0.95569991     0.58378061    -0.63509302
Ni     -5.78137539     8.72082291    -6.02564457    -0.69976902     0.92335164     0.50567407
Mo     -9.83772795     8.67591107   -10.34467192     1.40961308     1.33554665     1.06820358
Mo     -9.71351040     8.74109686    -6.31063724     0.46041350    -0.55888711    -0.12281420
O      -2.01275495     1.96446368    -1.94372314     0.12681111     0.47817580    -0.41784413
O      -1.98787509     1.85829102    -6.04100791     0.67087418     0.13375698    -0.32783879
O      -5.93106969     6.78186990    -2.02449783    -0.22468000     0.20487344    -0.23974721
O      -5.86689335     6.82862242    -5.96433465    -0.28714388     0.60607239     0.63916280
O      -5.96021560     1.87568067    -9.83134171     0.53637877    -0.05015618    -0.24145116
O      -5.78707412     1.97436981    -6.18702198    -0.20287409    -0.68488763     1.20190369
O      -9.78154462     6.78027203   -10.04084157    -0.36926993    -0.41075670    -0.06540944
O     -10.01836509     6.71969952    -5.78130727     1.77506231     1.49574617    -0.80564681
O      -3.86066960     2.47746756    -4.00925666    -0.32892034    -0.52357718    -0.43161759
O      -3.99813553     2.52702545    -7.98199105     0.94455653    -0.57582024    -0.03522096
O      -7.83796364     2.36622267    -4.01868739    -0.64154520     0.38153141     0.63488771
O      -7.80145536     2.41923666    -7.87115643    -0.38192397     0.38352436    -0.53168062
O      -3.93650206     6.35960109    -3.98450670    -1.09131452    -0.99013067     0.04257174
O      -4.03960827     6.45009165    -7.94460349     1.06675475    -0.34801430    -0.24287090
O      -7.94795954     6.39692727    -3.90001394     0.54853537    -0.93938426    -0.36866597
O      -7.87509587     6.28488707    -7.85277797    -0.33980904     1.69574828    -0.80220024
O      -3.90148614     4.29412985    -2.03939818    -0.04246333     0.69809649     0.23274566
O      -3.84040867     4.51297747    -6.03355283     0.30522801    -0.50898417     0.30353341
O      -7.87638950     4.46034796    -9.91091786     0.28042532    -0.53551893    -0.35284583
O      -7.65521427     4.40377379    -5.84902736    -0.57099404     0.24760844    -1.13913205
O      -4.06637941     0.12608399   -10.03778923    -1.24093003    -0.47067820    -0.23393976
O      -7.91567284     8.68478010    -6.03417811    -1.51356494     0.00659846    -0.39952904
O      -7.81955117     0.15796466    -6.01041771     0.65040010    -0.26653662    -0.28669034
O      -7.72204225     0.11288807   -10.01608073    -0.30508123    -0.94654295    -0.16868871
O      -9.70120750     4.33830092    -7.93551820    -1.02142597     0.02711366    -0.27657717
O      -9.77070112     4.37199379    -4.05936980     0.12390434    -0.29211676    -0.03164919
O      -5.90390366     3.96959757    -3.98429445    -1.64063252     0.81957869    -0.07222589
O      -5.85627881     4.49105189    -7.90956335     1.19701014     0.82710325    -0.89155453
O      -1.98555672     0.34841453    -3.97185983     0.04679829     0.04826812    -0.38750386
O      -6.03899552     8.55290824    -8.07731544     0.41753945     0.33687178     0.51590350
O      -5.97092959     0.30760043    -4.14537006     0.46573538     0.09325118    -0.73722815
O      -9.88299489     8.12320245    -8.02782036     0.14740991     1.03510751     0.50451912
