# total energy = -630.59514302 eV

CRYSTAL
PRIMVEC
        0.00279571     0.02951795    -7.98606283
       -7.83802570     0.01298533    -3.99532603
       -3.92160916     8.71933433     0.00634407
PRIMCOORD
56 1
Li     -3.94957678     2.51048262    -2.01096816    -0.11964145    -0.09757572     0.38893611
Li     -3.89738695     1.91079817    -6.10182742    -0.48380601     0.13996128     0.33252536
Li     -7.90415322     2.25033123    -9.87596032     0.28041841     0.52867571    -0.56088877
Li     -7.84275734     2.16829356    -5.99581409     0.34302441    -0.12099063    -0.14384033
Li     -4.05406562     6.42693142    -2.04994977     1.09828484     0.14153871     0.26993510
Li     -3.80225102     6.56566431    -5.89700463    -0.58343738    -0.47316062    -0.42520186
Li     -7.93609729     6.29710831    -9.88713775     0.57455876    -0.21238586    -0.56343910
Li     -7.80056804     6.53398918    -5.86177308     0.21697156     0.00458583    -0.00315246
Ti     -2.04488092     2.22918288    -4.02516785     0.12148858     0.44435754     0.30184601
Ti     -5.80010861     6.59735663    -8.08219186     0.54348858     0.21087727     2.31581807
Ti     -7.83176605     4.44512934    -7.68300441    -0.47125763    -0.92936637     0.58838217
Ti     -7.71291081     4.26662158    -3.78852498    -0.67880164     0.27470629     1.28172967
Ti     -3.88184826     4.25757198    -7.67732545     0.23638072     2.10363617     1.25431385
Ti     -3.99238507     4.48579161    -3.81784630     0.26361816    -0.62518159     0.67638678
Ti     -2.22288509     0.10657344    -1.99353204     0.14532745     0.13044137    -0.01582042
Ni     -5.85722736     2.38282927    -7.95804053    -0.76802316    -0.78590245    -0.53192945
Ni     -5.95834684     2.14110197    -4.11092127     0.66676157     0.04378556     0.90541984
Ni     -9.76743343     6.61129807    -8.02846722    -0.26558154    -0.38203813     1.32735101
Ni     -9.71617877     6.31042291    -3.97007279    -0.52524881    -0.16463626    -0.09174764
Ni     -1.92218068     2.20269724    -8.01830731    -0.86180618     0.09279001    -0.18561358
Ni     -5.81894381     6.68543440    -4.01076640    -0.65878377    -0.08298592    -0.52488473
Ni     -1.92904544     0.10583662    -6.03810524    -0.75812884    -3.21164571     0.65138840
Mo     -6.06780707     0.12034198   -10.16152645     2.30057079    -0.50696369    -0.12205923
Mo     -9.76247351     8.55523425    -6.38659811    -1.07289079     0.07818887    -0.08779929
O      -1.91463385     2.04311434    -2.02324573    -0.44702194    -0.54936976    -0.05532122
O      -1.96483549     1.84714112    -6.16326100    -0.03177684     1.74973388     1.35668565
O      -5.89413761     6.82546081    -1.90078107    -0.07420104     0.48022927    -1.79633459
O      -5.86793124     6.91574291    -5.96356208     0.45269896     0.50200754     0.41158284
O      -5.84602096     2.03701063   -10.07393918    -0.57894879    -0.49516227    -0.04366335
O      -5.89615934     1.90450697    -5.93247327     0.68274601     0.06148508    -0.82598442
O      -9.65381292     6.89484373    -9.89270346    -1.19707506     0.74631488    -0.57418224
O      -9.75248434     6.68231801    -6.08110579    -0.22966050     0.02292063     0.23566183
O      -3.93924611     2.45599026    -3.90324175     0.66878489    -0.78913764    -1.09596002
O      -3.94658716     2.43453255    -8.01496335     0.01476423    -0.78383874     0.05863577
O      -7.94801845     2.31486134    -4.11593065     1.25209887     0.24676344     0.65776829
O      -7.75341678     2.40714743    -8.01639062    -1.06543563     0.90158420     0.78093306
O      -3.85915556     6.41801234    -4.03336854    -0.15909539     0.47293532     0.43025197
O      -3.84983711     6.25908564    -8.03154567    -0.69917481     0.72450331     0.48542918
O      -7.76641985     6.22469047    -3.93126443    -0.11599934     0.53371792     0.21371574
O      -7.81956933     6.37436251    -7.98004852     0.09775869    -0.11369174     0.06680377
O      -3.99827270     4.49671817    -2.00720339    -0.26761835    -0.26210757    -0.81427713
O      -4.04281474     4.46270290    -5.88503187     0.07098651    -0.04898233    -1.66485622
O      -7.93896596     4.24566670    -9.96828300     0.17839045     0.49483788    -0.73924817
O      -7.86557781     4.46287096    -5.88443854    -0.43765682    -0.37512901    -1.88367777
O      -3.97398246     0.11952255    -9.92705170     0.03668376     0.08488741    -0.07793067
O      -7.95455280     8.60900005    -6.02573092    -0.17945463     0.77120679     0.08052254
O     -11.52545652     8.68399135    -6.02064513    -0.30105925    -0.27341751    -0.11136527
O      -7.75300697     0.03983388    -9.85596047    -1.70534411    -0.15084848    -0.01592044
O      -2.05486929     4.21618916    -3.99362302     1.25356115    -0.79404063    -0.10580445
O      -2.00434798     4.37135282    -7.85121481     0.64292463     0.19215140    -0.78152053
O      -5.88860321     4.05898749    -4.07733573     0.12701320    -0.15961524     0.10192538
O      -5.94856682     4.50657338    -8.06554306     0.71088647    -0.08208075     0.55533543
O      -2.06902636     0.30349428    -3.95231894     0.35968500     0.04139568    -0.08171241
O      -5.77493474     8.63471556    -7.88552989    -0.10857063    -1.28871974    -1.65614784
O      -6.00343883     0.06807347    -3.94863594     0.55812121     0.43002483    -0.87269363
O      -5.88409339     0.46966194    -8.14019933     0.67885079     0.97303747     0.86843190
