# total energy = -631.11800503 eV

CRYSTAL
PRIMVEC
        0.00285542     0.02004370    -7.95977623
       -7.82940539     0.00763210    -3.98158109
       -3.91729101     8.74642787     0.01461334
PRIMCOORD
56 1
Li     -3.93687142     2.13957387    -1.90308122    -0.42171867     0.33250447     0.05152646
Li     -3.92731778     2.13392108    -5.97597119    -0.03944795     0.11823811     0.15817684
Li     -7.94910475     2.21322689    -9.94532291     0.27917397     0.34420597    -0.38369329
Li     -7.77072510     2.19801325    -6.01469542    -0.04687292    -0.13093778     0.38859242
Li     -3.78733146     6.35624367    -1.89508986    -0.39421768     0.20681135    -0.52978618
Li     -3.80036101     6.30023956    -5.83827609    -0.19849998     0.15594746    -0.15133650
Li     -7.96481469     6.10091185    -9.93489918     0.24887813     0.54145887     0.10937476
Li     -7.73584844     6.72280147    -5.98569388    -0.29316272    -0.52838890     0.42815745
Ti     -1.98848435     2.23836311    -3.87707330     0.48594464    -0.18765226    -0.95207948
Ti     -5.77650430     6.75497683    -7.89227927     0.14880010     0.66988220    -0.20757107
Ti     -7.73453406     4.35491799    -7.69963846    -1.05371760     0.41234153    -1.95619702
Ti     -7.90524439     4.29307527    -3.87204590     0.84003987     0.01638585     0.40999456
Ti     -3.81749028     4.38509266    -7.70169326     0.22485597    -0.56919363     0.67841976
Ti     -3.97695570     4.32194330    -3.73043675    -0.88817082     1.56053441    -1.01354965
Ti     -6.16190786     8.65546669    -2.05700083     0.21178302     0.63212580    -0.31389029
Ni     -5.80949251     2.49925536    -8.04501945    -0.83834309    -1.79092270    -0.16885377
Ni     -5.92450677     2.16931975    -3.97323319     0.44458846     0.03792455     0.13834946
Ni     -9.78016832     6.57026130    -7.83174191     0.24478675     0.12244997    -0.43002434
Ni     -9.71824020     6.59168174    -4.10028377    -0.22159665    -0.16458652     0.92741962
Ni     -2.01248132     2.00941869    -7.90132238     0.62732880     0.26833622    -0.02677091
Ni     -5.87785982     6.59637130    -3.99650538     0.06827424     0.44707719     0.79011310
Ni     -5.88418631     8.71446479    -5.95912441    -0.25674197     0.09181158     0.60472751
Mo     -6.02823231     0.04512021   -10.20827094     0.12094734     1.06108493     1.26198073
Mo     -9.78671892     8.74800409    -6.31168486     0.07631062     1.10746572    -1.03165675
O      -2.03625438     1.88349160    -1.98871994     0.96492871     0.29924151     0.60448069
O      -2.05344879     1.80395386    -5.97330760     0.52571782    -0.22394312    -0.38037037
O      -5.90134375     6.80345552    -1.95361337    -0.03130441    -0.44883562     0.12053763
O      -5.79705607     6.82050577    -5.93147159    -0.11082918     0.13952887    -0.54753658
O      -5.94904722     2.10889456   -10.01987534     0.33300757    -1.13671680    -0.93457486
O      -5.82187285     1.92048724    -5.85001586    -0.26866348    -0.23085550     0.07982337
O      -9.79284666     6.99399992    -9.71784683     0.40981246    -0.18611398     0.31350064
O      -9.68189374     6.88463280    -5.96381631    -0.26830697    -1.64105730    -0.59394874
O      -3.95558215     2.42858507    -4.01176063     0.22555725    -0.84780689     0.57375690
O      -3.88535386     2.44228438    -7.89676706     0.13746036     0.54671263    -0.47619240
O      -7.79554145     2.31717881    -4.07121228    -0.84808296     0.34491214     0.21092482
O      -7.82930492     2.42626631    -8.07828297    -0.09260956    -0.27106503     1.20183949
O      -3.75790772     6.30905133    -3.99722901    -0.39254788     0.01346152     0.95013499
O      -3.84532620     6.45206628    -7.92222007    -1.22913715    -0.65531560     0.12878745
O      -7.87795913     6.28480971    -4.01004058     0.23013197     0.84652012    -0.01916773
O      -7.87635580     6.29130036    -7.95626585     1.06819136     0.32646809     0.11379852
O      -4.01129640     4.34413600    -2.01223814     0.48097566     0.01349475     1.65654455
O      -3.82199230     4.30474325    -5.90170511    -0.09051768     0.57773504    -1.55134066
O      -7.84990584     4.24212492   -10.06358100    -0.77624389     0.08716975     0.07312286
O      -7.79485751     4.31531802    -6.00888851     0.30557913    -0.41009878     2.43401906
O      -4.02306529     0.18255678    -9.94968811    -0.30845987    -0.48124826     0.25817589
O      -7.88554740     8.57818531    -6.05665457    -0.17424051     1.00006613    -0.16202154
O     -11.55812663     8.60343620    -6.00929698     0.37625605     0.51782050    -0.16458090
O      -7.78825372     0.05071583   -10.09696293    -0.26675698     0.21548581     0.46761861
O      -1.87782493     4.10689672    -3.82096681    -1.50019236    -0.05780570    -0.63466422
O      -9.82445959     4.73542542    -4.14988875     0.27277250    -0.39651160     0.22453957
O      -5.91524028     4.81848638    -3.88157725     0.26254019    -1.47903296    -0.87148999
O      -5.87451169     4.38774350    -8.05053269     1.80864832     0.49328600     0.35624420
O      -1.99709403     0.18394272    -3.90518845     0.16542814    -0.77097801    -0.51533626
O      -5.71549769     8.61474726    -7.95294268    -0.78475884    -1.28987875    -0.97071399
O      -9.69785682     8.66197916    -3.99320716     0.03972750    -0.70329969    -0.89130146
O      -5.88343203     0.65415174    -8.08839762     0.10633721    -0.34609321     0.29499798
