# total energy = -630.14130725 eV

CRYSTAL
PRIMVEC
        0.00279571     0.02951795    -7.98606283
       -7.83802570     0.01298533    -3.99532603
       -3.92160916     8.71933433     0.00634407
PRIMCOORD
56 1
Li     -3.69205022     2.33559095    -1.94324542    -0.85364646    -0.13273264     0.14858266
Li     -3.94383930     1.91259190    -6.09658578     0.15479194     0.00315355     0.46292242
Li     -7.82861252     2.70222500    -9.98566745    -0.12189017    -0.56359224    -0.28267733
Li     -7.77169652     2.44136652    -5.97144043    -0.00397815    -0.16403299     0.36005281
Li     -3.77206534     6.30076740    -2.00227126    -0.52623685    -0.37438018     0.22478815
Li     -3.97964979     6.60507310    -5.89675014     0.12290913    -0.46684677     0.09904255
Li     -7.99398107     6.58215408    -9.85214849     0.28301237    -0.16660512    -0.96138748
Li     -7.70687065     6.41755130    -5.96931247    -0.91831857     0.35875381     0.07923789
Ti     -1.91014207     2.26519917    -3.95662305    -0.22060242    -0.00461207    -1.01554736
Ti     -5.90495562     6.72280696    -8.15667148     1.74575244    -1.09514938     1.72569784
Ti     -7.83056645     4.43399402    -7.78761346     0.15381943    -1.34146770    -0.17659721
Ti     -7.86780626     4.55159702    -3.88620819    -0.10920892    -2.55566452     0.26067802
Ti     -3.82574090     4.30879784    -7.60483420    -0.20111438     0.90513506    -0.09464595
Ti     -4.08482576     4.25415504    -3.87169303     0.56336924     0.47299806     0.52637952
Ti     -5.95107999     8.71688736    -2.06963288    -0.92662790     0.85804605    -0.46287629
Ni     -5.88894409     2.38031476    -8.08823444     0.31549687    -0.26237808     0.58082365
Ni     -6.01485935     2.04378198    -3.96236292     0.52449447     0.50589600    -1.69307378
Ni     -9.78039638     6.37436519    -7.97548151    -0.38502826     0.46528273     1.21663109
Ni     -9.82885197     6.67053208    -3.97028595     0.09829831    -0.28254474    -0.23387186
Ni     -1.86822485     2.12063671    -7.89826686    -0.16494468    -0.17899130    -0.46860545
Ni     -5.88627114     6.51770558    -4.03662173     0.82553229    -0.05744701     0.07946507
Ni     -5.88519151     8.67254699    -5.85467659     0.31624521    -0.67756240    -0.87694432
Mo     -6.01848308     0.13470244   -10.14465427    -0.00577852    -0.49643426    -0.52486055
Mo     -9.81716635     8.67628936    -6.38415792    -0.42110180    -1.42180006     1.19483150
O      -1.85077895     1.94486274    -2.01961654     0.24341172     0.00043669     0.44192345
O      -1.83289885     1.76180668    -6.05239846    -0.56109591     0.84858953     0.74256252
O      -5.83858139     6.77648567    -2.03048649    -0.22551359    -0.37259255    -0.76698059
O      -5.92276709     6.84432441    -5.88935895     0.32693086     0.08391156     0.50827001
O      -5.94196003     2.08433730   -10.09230885    -0.09112919    -0.27593695     0.82496102
O      -5.93577554     1.93256330    -5.90074164     0.61932614    -0.58349068     0.14096332
O      -9.83604444     6.97247630    -9.79751353     0.93705368    -0.46280116     0.09190984
O      -9.81707940     6.68661485    -6.03202515     0.85713157     1.41034846    -0.19205770
O      -3.79890865     2.28786446    -3.98690635    -0.48148730     0.13039241    -0.48569022
O      -3.77120633     2.43862246    -8.00389995    -0.39857647    -0.22536304     0.66777269
O      -7.91959585     2.49739852    -3.97801286     0.56694150    -0.24056052    -0.06595301
O      -7.83677769     2.46309586    -8.04591383     0.47643732     0.18271045     0.11965548
O      -3.76786666     6.21576528    -3.90705807    -1.13424611     0.58239219    -0.27228581
O      -4.05450633     6.28199646    -7.88302168     0.04876172     0.45288867    -0.94192549
O      -7.78079677     6.35459506    -4.01326169    -0.17370686     2.97434056    -0.16505255
O      -7.78720376     6.28548705    -8.02989542    -0.29984268     1.52820138     0.22564040
O      -3.90485452     4.22192898    -2.10087626    -0.22271021     0.66375726     0.21153858
O      -3.85796892     4.59256759    -5.87681218     0.48245707    -0.93157227    -0.91843354
O      -7.74912541     4.53225145   -10.11556266     0.12758513    -0.07108413     1.18830710
O      -7.98439172     4.43914052    -6.05446021     0.11844631    -0.16852699     0.61190987
O      -3.97354279     0.15077821    -9.94047924     0.58153879    -0.45182033     0.14394020
O      -7.98229993     8.63749795    -6.11901371    -0.22412999     0.37542699    -0.00488815
O     -11.59326215     8.66985357    -5.94795287    -0.14272342    -0.26279076    -0.06939105
O      -3.85930722     8.54523780    -6.02260467    -0.07105376     1.22930639    -0.20837350
O      -1.91470116     4.25481958    -4.14979251    -0.07768541    -1.67706880     0.09388614
O      -9.80275964     4.80830377    -3.95995545    -0.22982665    -0.18994155    -0.22013774
O      -5.88208258     4.33734417    -4.35513252    -1.36859079     0.07903206     1.15856165
O      -5.84471670     4.16282880    -7.82220314     0.11675388     1.29083579    -0.68202804
O      -1.85004402     0.18569857    -3.91602178    -0.21599543     0.31125399    -0.29054233
O      -5.80404992     8.46954101    -8.00088948    -0.30013890     0.91963962    -0.39780302
O      -9.73179865     8.67041755    -3.96400339    -0.22347896    -0.29946159    -0.57470118
O      -6.09653384     0.55513572    -8.08118665     0.76237603     0.22161523    -1.18457705
