# total energy = -630.83161592 eV

CRYSTAL
PRIMVEC
        0.00279571     0.02951795    -7.98606283
       -7.83802570     0.01298533    -3.99532603
       -3.92160916     8.71933433     0.00634407
PRIMCOORD
56 1
Li     -4.04639466     1.94657050    -1.90952096     0.57820148     0.35212725    -0.23339296
Li     -4.00003646     2.26704977    -5.87847116     0.13217858    -0.00448352    -0.75074908
Li     -7.82910144     2.24791063   -10.02020839     0.44112564    -0.04808876     0.01954064
Li     -7.93754184     2.17472340    -5.97797022     0.31179278     0.19144518     0.19972654
Li     -4.02230517     6.60853868    -1.87778387     0.78976282    -0.37744445    -0.31764732
Li     -3.76986099     6.17290903    -5.93463438    -0.80020592     0.70748858     0.25398521
Li     -7.80083371     6.51469686   -10.03168190     0.06249278    -0.06547473     0.43716463
Li     -7.95316950     6.56084753    -5.81441234     0.19812730    -0.05988932    -0.54029048
Ti     -1.95640019     2.41843588    -4.16728956    -0.61739650     0.49824947     0.67468218
Ti     -5.82555692     6.81669644    -7.83951866    -1.08839234    -1.18917235    -0.21368409
Ti     -7.71858816     4.41886817    -7.69712194     0.13151880     1.24040637    -1.74247064
Ti     -7.92670158     4.37826555    -3.77485320     0.41731120     0.41051666     1.21172535
Ti     -4.00175202     4.28064279    -7.77071841     0.03671587    -0.32105525    -2.34691526
Ti     -4.15117446     4.41942457    -3.63768673     0.12012320    -0.85577382     0.30045802
Ti     -1.88037999     0.06319127    -2.21982065     0.51746321    -0.39105415    -1.10641181
Ni     -5.94840435     2.03438261    -7.96867980     0.72566667     0.27362724     0.16617811
Ni     -5.89712391     2.21209543    -4.03066531    -0.36751249    -1.26569014    -0.13228201
Ni     -9.90028229     6.47980528    -7.95774770     1.18339147    -1.14485878    -0.18500656
Ni     -9.88599350     6.48023616    -3.97587031     0.73125192     0.22004263     0.40035459
Ni     -1.93937060     2.26790541    -8.08688073    -0.55840700     0.03662550     0.64600718
Ni     -5.91205292     6.65998605    -3.99114249     0.44771814     0.13870213    -0.20488870
Ni     -1.75324965     0.08645481    -5.92933005    -0.88898612    -0.20293488    -0.94405996
Mo     -9.77002446     8.57934511   -10.31285370    -0.14631160    -0.73515295    -2.11070370
Mo     -5.82110771     0.07386196    -6.25209062     0.13063343     0.74939339     0.17448681
O      -2.04619497     2.02792265    -2.16641613     0.27216582    -0.81380182     1.14820858
O      -1.88860701     1.93557969    -6.08797557    -0.30810581    -0.04922826     0.59032767
O      -5.79008606     6.81196721    -2.10200664    -0.98093738     0.84667829     0.68062238
O      -5.78850517     6.96146854    -5.94139619    -0.10428646    -0.44864861     1.01442665
O      -5.90221142     1.73282649    -9.85815771     0.65873366     1.26221149     0.18278715
O      -5.95501174     2.03169789    -6.03683102     0.10357132    -0.26216115    -0.46551930
O      -9.85927577     6.64133474   -10.04484582     0.80372371     0.54852980     0.37254994
O      -9.96505870     6.90001640    -5.82634760     0.50432581    -0.36615677    -0.08277768
O      -3.85769957     2.43760896    -3.98408893    -1.10587073     0.11508294    -0.33489621
O      -3.95387023     2.31689476    -8.02185991    -0.21425942     0.49931814     0.46928767
O      -7.84931463     2.37776374    -3.93185355    -0.41901800     0.24858032    -0.67542731
O      -7.87262993     2.48612190    -8.08507857     0.53277537    -0.50603977     0.43761333
O      -3.97362538     6.28479169    -3.95080056     0.01423002     0.47594395    -0.36639545
O      -3.93645752     6.39733489    -7.95065920     0.05172510    -0.11016493     0.24022391
O      -7.79199586     6.38403830    -3.97139032    -0.62394733    -0.34336862    -0.44589858
O      -7.79719989     6.40306164    -7.86295108    -0.48345129    -0.03077515    -0.21118367
O      -3.93498803     4.42967451    -1.90407279    -0.15000818    -0.03611844    -0.55811944
O      -4.02952665     4.39461436    -6.06917111     0.32512546    -0.63211229     2.42217870
O      -7.88576796     4.63113586    -9.99354941     0.12101615    -1.01160745    -0.35326724
O      -7.87030303     4.45614356    -5.98818843    -0.24278127    -0.09593756     1.50727464
O      -7.91304956     8.50221911    -2.13010466    -0.16378332     0.98519546     0.51613863
O      -4.08911928     0.06194812    -6.06155539     0.31187174     0.31657980     0.12850170
O      -7.85584699     0.18731797    -6.14401557    -0.50377823    -0.24625067     0.43592965
O     -11.49698855     8.70261896    -9.96255430    -1.29411367    -0.35462461     0.02844272
O      -1.99705340     4.34149162    -4.00891121    -0.21103846    -0.10145610    -0.18172697
O      -1.98085325     4.36660630    -7.95018234    -0.72825056    -0.47732187    -0.57655276
O      -5.99425652     4.01540418    -4.00741044     1.14466661     0.73289395     0.21951743
O      -5.88014323     4.60975218    -7.99492785    -0.01605536     0.36581507    -0.10671301
O      -1.98023149     0.23989437    -4.07709448     0.07929348     0.84596805     0.28305661
O      -5.92146857     8.63692524    -7.83927929     0.63092031     0.45310545    -0.90321300
O      -5.89833286     0.28627814    -4.21975820    -0.21846170     0.37736347     2.77244686
O      -9.77864082     8.27788836    -7.97816351    -0.48801181    -0.28334486    -1.87589972
