# total energy = -630.75271961 eV

CRYSTAL
PRIMVEC
        0.00285542     0.02004370    -7.95977623
       -7.82940539     0.00763210    -3.98158109
       -3.91729101     8.74642787     0.01461334
PRIMCOORD
56 1
Li     -4.00420325     2.08876965    -1.99207096     0.44492806    -0.09836627     0.25759616
Li     -3.99452355     2.18485418    -6.03822581    -0.21870691     0.00293828     0.67788364
Li     -7.90997019     2.34316783    -9.97823517     0.83760783     0.40842499    -0.72036761
Li     -7.79234713     2.16674672    -5.81453399    -0.23632461     0.21122307    -0.21313359
Li     -3.94632745     6.39059971    -1.97451012     0.22384088     0.43351480    -0.06182586
Li     -3.91913765     6.58652039    -5.89870192    -0.10955396    -0.74014841     0.08458375
Li     -7.77917176     6.48263336    -9.90080428    -0.60342706    -0.04373317     0.30739547
Li     -7.76798664     6.74373807    -5.97605815    -0.34101310    -0.25176113     0.34335772
Ti     -1.76121572     2.22052245    -4.08270198    -2.03625664     0.02888497     1.33223358
Ti     -5.76836603     6.61888379    -7.95814479    -0.02667764    -0.69322377     0.25192173
Ti     -7.79157143     4.47400659    -7.69167251     0.36847719     0.43134336    -0.04166702
Ti     -7.69366256     4.53059247    -3.75602212     0.12237558    -2.18669198    -0.49128713
Ti     -3.67107800     4.28520973    -7.78003533    -1.17818480    -0.02154394    -0.33191243
Ti     -3.91501861     4.29297381    -3.68107990    -0.26586513     0.14603545    -1.42927136
Ti     -6.09479518     8.70452195    -2.02635396    -0.18128472     0.78119065    -0.02932748
Ni     -5.90008700     2.37655358    -8.02361228     1.36434662     1.73695599    -0.02526931
Ni     -5.89875320     2.07524836    -3.96500091    -0.31078989     1.07502813    -1.40715557
Ni     -9.86486001     6.65544446    -7.90417171     0.73808000    -0.72477507     0.31306808
Ni     -9.71943923     6.53481313    -3.95123143    -0.20223990     1.81791295    -0.20116499
Ni     -2.01225487     2.08663968    -7.87254522     1.48492828    -0.01394626    -1.20534664
Ni     -5.80527758     6.78397040    -3.97347474     0.49891281    -0.64421587    -0.32012766
Ni     -2.14101168     0.06099183    -5.98844126     1.12230118    -1.59013690     0.79039118
Mo     -9.97489619     8.69518216   -10.12155513     2.26747070     1.00833277    -0.23389288
Mo     -9.83906648     8.67926225    -6.38609662    -0.67906010     0.10732803     1.07184423
O      -1.98350944     1.84278882    -1.89772450     0.39107693     0.87178275     0.56628225
O      -1.92571645     1.85202808    -5.93912821    -0.49790313     0.67785879    -1.06105960
O      -5.95175140     6.77416993    -2.05318742     1.18007633    -0.32201893     0.87730737
O      -5.87546957     6.96026815    -5.92546915    -0.47350589    -0.14060968     0.35362320
O      -5.88238547     2.01497414   -10.02880380    -0.40792822    -0.63212278    -0.26597166
O      -5.93547553     1.84813505    -5.94325514     0.14836427     0.76725117     0.70876676
O      -9.69930107     6.87420075    -9.83213589    -0.49852136    -0.56487827     0.34949095
O      -9.79329035     6.80013412    -5.94686370     0.37189153    -0.16616659    -0.54645328
O      -3.85393945     2.36785716    -3.95700838     0.18293227     0.50313651     0.03154290
O      -3.92257993     2.34889123    -7.92054867     0.08337075     0.96754672    -0.45386752
O      -7.83150581     2.42757947    -4.00748743    -0.76767703    -0.32706646     0.85594315
O      -7.73593230     2.48302545    -8.01609199    -1.10412497    -0.84517674     0.21621016
O      -3.87168080     6.37545039    -3.98082590    -0.55322712    -0.43078050     0.17449574
O      -3.91057652     6.38806146    -7.91485465    -0.14595564     0.27467659    -0.19616702
O      -7.63912254     6.41281172    -3.85705608    -1.09989522     0.67739689    -0.97695953
O      -7.91521190     6.35937809    -7.91478274     0.66782659     0.48559482    -0.12676156
O      -4.03604081     4.49198209    -1.94455362     0.37006042    -0.35630424     0.02082223
O      -3.83838044     4.44019775    -6.06211701    -0.21978612    -0.00548651     0.99829159
O      -7.99642916     4.28648939    -9.98906541     0.66792840     0.47502603     0.03152793
O      -7.72860513     4.35715780    -5.95640099    -0.63139602     0.00232309     0.41698112
O      -7.91876096     8.71764918    -2.04886584    -0.38831785     0.16910372     0.24096339
O      -4.07197110     0.09564674    -6.14513044    -0.42666102    -0.87294521     0.55932693
O     -11.65430610     8.62269351    -6.10644884     0.38639502     0.29238952    -0.09902460
O     -11.65127761     8.61334785    -9.82329283    -1.91745354     0.53788247     0.24069841
O      -1.91307129     4.25799556    -3.97978497    -0.96680424    -1.55848563     0.28074624
O      -9.70984625     4.76529116    -4.01049058     0.88749769    -0.86185729    -0.58627206
O      -5.84004919     4.04807930    -4.17718168     0.51728165    -0.14689010     1.04298473
O      -5.86531276     4.43073004    -8.04615293     0.03461925     0.12837767     0.33455063
O      -2.00951422     0.28714918    -3.89765175     0.43078486     0.26371992    -1.09764875
O      -5.94953591     8.44164424    -7.91378841     0.36273302     0.43183056    -0.94594620
O     -10.00665626     8.72391232    -3.99970062     0.77556150     0.34053605     0.33301570
O      -5.85000346     0.61328547    -8.11442698    -0.28037634    -1.08150139    -0.97288470
