# total energy = -630.88325796 eV

CRYSTAL
PRIMVEC
        0.00285542     0.02004370    -7.95977623
       -7.82940539     0.00763210    -3.98158109
       -3.91729101     8.74642787     0.01461334
PRIMCOORD
56 1
Li     -3.90859466     2.04171759    -1.86333459    -0.00773484     0.12306264    -0.21354604
Li     -3.97820877     1.88052920    -6.04749082    -0.02449055     0.34364043     0.05160805
Li     -7.87928650     1.87701722   -10.02400863     0.08919258     0.42642447     0.20218403
Li     -7.77957328     2.34766321    -5.93278817    -0.24718234     0.10678343    -0.08960050
Li     -3.86481638     6.43807072    -1.79729633    -0.06781042     0.12335819    -1.11097611
Li     -3.94738761     6.75615939    -5.71514236     0.17063015    -0.79854061    -0.02120745
Li     -7.83431045     6.35479861    -9.83364080    -0.12391694     0.11179487    -0.03014967
Li     -7.83836387     6.44696664    -5.92141456    -0.42845916    -0.12997983     0.29546731
Ti     -2.02434572     2.23639884    -4.02970538     0.43359953     0.75892445     0.51415506
Ti     -5.78456929     6.68098919    -7.82819277    -1.18815574     0.36081297    -0.04955450
Ti     -7.79442182     4.40615691    -7.79842141    -1.24668691    -0.63656768     1.25132661
Ti     -7.82940024     4.40561745    -3.74142447     0.85663665    -1.07893972     0.80260376
Ti     -3.85868175     4.39338671    -7.69555811     0.56959106    -1.14964861    -0.10137879
Ti     -4.06390295     4.39365569    -3.65304002     2.00704805    -0.14006840    -0.56986629
Ti     -5.82929235     8.71677540    -2.23580023     0.06630974     0.71036970    -0.20607333
Ni     -5.85406787     2.45373891    -8.17275437    -0.47123275    -1.60850563     0.48067428
Ni     -5.85457938     2.18558689    -4.02824073    -1.60204991    -0.39489805    -1.10470620
Ni     -9.84082688     6.67676540    -7.80773612    -0.37764096    -0.89058108    -1.03942941
Ni     -9.78046737     6.53360935    -3.82043874    -0.48958005    -0.22947500    -0.76053044
Ni     -1.88817284     2.37285113    -7.87009761    -1.18306039    -0.30116090    -0.78614774
Ni     -5.86104060     6.49422380    -3.86109811    -1.09709656     0.34856281    -0.41954991
Ni     -6.01112885     8.68179008    -5.89505002     0.40551644     0.07093774    -0.57373873
Mo     -9.78109270     8.68016972   -10.24276845    -0.59332128    -0.60630042     0.35008450
Mo     -9.83857618     8.74689367    -6.41129711     0.44619093     0.00996614     0.66494507
O      -1.95515759     1.89880597    -2.00819758    -0.05546585    -0.98367382     0.06864695
O      -2.06092142     1.86583593    -5.91733466     0.44200295    -1.07045225    -1.32357980
O      -5.95980283     6.85853858    -1.94195084     0.18844564    -1.02230437     0.08795793
O      -5.98041533     6.78297210    -5.77694530     0.61481747     0.51868671    -0.74513177
O      -5.90869606     1.98921856   -10.15601459     0.06496635    -0.01406114     0.72454519
O      -5.90009922     1.93296893    -5.94108295     0.14903310     0.01547294    -0.29674258
O      -9.74584485     6.79030693    -9.71499112     0.10694506     0.78257699    -0.44750129
O      -9.84027054     6.83584585    -5.98794022     0.14773101     0.22097205     0.89389230
O      -4.03383428     2.34697436    -3.94097147     1.41788246     0.41718615    -0.30842412
O      -3.82851503     2.44189734    -7.95213739    -0.32267041     0.49573722     0.33192601
O      -7.91557478     2.43229955    -4.00488166     1.18245774    -0.47078769     0.17089842
O      -7.87941371     2.40592294    -7.97914482     0.31534038    -0.05599786    -0.26364210
O      -4.00390682     6.35045258    -3.85067034     0.94188418     0.15995599     0.11536805
O      -3.95946876     6.36049487    -7.97192926     0.61876392     0.60206541     0.83347152
O      -7.92243428     6.28517942    -3.93680217     0.81156006     1.00145128     0.39065415
O      -7.84034513     6.36253649    -7.89953322     0.16362828    -0.30350224     0.00924428
O      -3.90499590     4.48716171    -1.91722073    -0.10703545    -0.14579807     0.42798085
O      -3.63338000     4.76045908    -6.01240863    -0.56654135    -0.80653436     0.48144376
O      -7.74356001     4.27527303    -9.89433234    -0.02901104     0.75889571    -0.75075101
O      -7.73080354     4.36558163    -6.00124262    -0.09516539     0.04041753    -0.95282737
O      -4.04116253     0.03329011    -2.06084168     0.40671140    -0.36929115     0.02147834
O      -8.04819072     8.68003391    -6.19222746     0.17850667     0.04003929     0.37940549
O      -3.88779451     8.66611510    -2.15983252    -0.52959957     0.18416231    -0.10489544
O     -11.61852968     8.59827596    -9.86110114     0.87544001     0.91167573    -0.38936618
O      -2.04019020     4.05137395    -3.91837531     0.23726284     1.01633901    -0.18320192
O      -9.65953988     4.29456373    -4.10784509    -1.64386183     0.27070080     0.34907561
O      -5.81712402     4.17654009    -4.11498073    -1.74553365    -0.22592500     0.19792129
O      -5.84500615     4.25385644    -7.95778219     0.53494992     1.44684175     0.10760684
O      -2.13023517     0.21528835    -4.09166940     0.16252136    -0.47759474     1.19044053
O      -5.74518599     8.44364628    -7.84574817    -0.44763318     0.94095958     0.38022634
O      -5.97102580     0.18264372    -4.13709761     0.22204124     0.29114856     0.67909394
O      -5.82626730     0.59302881    -8.19031734    -0.39357590     0.36064335     0.34677437
