# total energy = -630.53457496 eV

CRYSTAL
PRIMVEC
        0.00285542     0.02004370    -7.95977623
       -7.82940539     0.00763210    -3.98158109
       -3.91729101     8.74642787     0.01461334
PRIMCOORD
56 1
Li     -3.95015662     2.43774505    -1.86451275     0.17498104    -0.18551249    -0.25855560
Li     -3.91441491     2.29039273    -6.15141741    -0.03556848    -0.32489365     1.53412106
Li     -7.83066362     2.16355359    -9.80797556     0.01749621    -0.04379507    -0.61263697
Li     -7.74548369     2.34917443    -5.86985814    -0.45248541    -0.10327154    -0.15771311
Li     -3.84782897     6.37732692    -1.99956473    -0.35291287     0.07112607     0.00581200
Li     -3.66263974     6.46711523    -5.85032392    -0.99946017    -0.23831507     0.00592024
Li     -7.86690015     6.33776701   -10.00553875     0.22087268     0.58956166     0.53887728
Li     -7.78180240     6.59739023    -5.88266092    -0.10982536    -0.35548619     0.07921433
Ti     -1.99805698     2.30477654    -3.91400020     1.45518941     0.42454194    -1.27069133
Ti     -5.72464374     6.85505243    -7.88827039    -1.16526710     0.47569784    -0.03992147
Ti     -7.87489270     4.42978826    -7.70062623     0.81378037     0.12917253    -0.05360013
Ti     -7.83389976     4.31075816    -3.70539211    -0.74536336    -0.03101636     0.48496352
Ti     -4.02483133     4.33416808    -7.71898846     0.46405822     0.10115249     0.79626630
Ti     -4.06219606     4.32985687    -3.84059579    -0.17188636     0.66299874    -0.14692049
Ti     -6.05361319     8.70845876    -2.18710623     0.10156919     0.21294311     1.23832406
Ni     -5.82923552     2.35175490    -7.97891026    -0.38605637     0.64793867    -0.62262418
Ni     -5.92545936     2.18404725    -4.01400136     0.42820483     1.57086579    -1.16582098
Ni     -9.70935829     6.44075337    -7.84676137    -0.38631845     0.01370287    -0.48380156
Ni     -9.81994181     6.36165517    -4.07053974     1.37615818    -0.63435310     0.29124852
Ni     -2.00857022     2.33146479    -7.85316328     1.23289299    -0.54343549    -0.30581852
Ni     -5.72484504     6.46524334    -4.00864931    -1.24519441     0.10831095     0.12823373
Ni     -5.98327201     8.76070179    -5.94378078     1.04667477    -0.94515974    -0.02013863
Mo     -5.93384846     0.03816987   -10.19821134    -1.48770885    -0.33415506     0.31290006
Mo     -9.74577381     8.73599243    -6.28368847    -1.81232006     0.05865336     0.19138459
O      -1.95662501     1.99958696    -2.05908006    -0.21205402    -0.89036810     0.53121951
O      -1.95289210     1.76775858    -5.89502701    -0.24773987     1.60691868    -0.82473455
O      -5.77014465     6.85258068    -1.89152912    -0.26458145    -0.35124984    -1.16381303
O      -5.88186246     6.82499248    -5.98169746     0.33941353     0.61643268     0.78707606
O      -5.78252395     2.03285254   -10.05486530    -0.48243527    -0.22963185     0.73492196
O      -5.89143853     2.03157589    -5.99957253     0.34704020    -0.48305399     0.77268635
O      -9.74429123     6.93268593    -9.83960162     0.27106228    -0.00477638    -0.21247142
O      -9.84920401     6.83611537    -6.01170971     1.10471478    -0.90025681     0.95157567
O      -3.80567995     2.37740137    -4.11786384    -1.93387591     0.18871344     1.00261552
O      -3.88267539     2.38309992    -7.93026039    -0.56022724     0.64660411    -0.72329966
O      -7.91551358     2.30903675    -3.91784595     0.12674013     0.91746921     0.16974087
O      -7.75897729     2.48913973    -7.97762696    -0.64667270    -0.34728326     0.37702412
O      -3.78793760     6.25686627    -3.95647513    -0.26126983     0.38634752    -0.21578834
O      -3.86421507     6.29775796    -7.83123945    -0.41090780     0.84527170    -0.61719080
O      -7.79145441     6.24220286    -3.97631172    -0.59672618     0.80267513    -0.14161019
O      -7.75399016     6.33211528    -7.92629470     0.21374862     1.03024421     0.12081058
O      -4.09660978     4.40757559    -2.07163920     0.65262933    -0.50422895     0.36596939
O      -3.90527600     4.30079808    -5.93871448    -0.25954860     0.28236972    -1.05593190
O      -7.89884402     4.50478880    -9.87678928     0.05358916    -0.87781781    -1.43800261
O      -7.96540206     4.38132416    -5.94216956    -0.08370151    -0.04891592    -0.23696249
O      -7.94111921     8.68514459    -9.87672470     0.67953805     0.46313374    -0.64994706
O      -7.93023404     8.65737692    -6.07576295     0.31671312     0.16099839     0.38001245
O     -11.57653449     8.66248358    -6.04528355     0.15331544     0.52387330    -0.22100500
O      -7.79112376     0.03550771    -9.80478165     2.34646680    -0.16914474    -1.04516676
O      -1.99608888     4.31925610    -4.14510209     0.07572486    -1.24979022     0.82258625
O      -2.04152230     4.35561540    -0.05584185     0.32509629    -0.25375295    -0.02681461
O      -5.98880948     4.31523527    -4.17485119     1.17327066    -0.63756870     0.48041650
O      -5.89835988     4.41596262    -8.04635454     0.31142503    -0.69023191     0.53597349
O      -2.02753928     0.24986759    -3.97845094    -0.02757459    -0.25278770    -0.43212238
O      -5.77500861     8.70399934    -7.99853287    -0.08132267    -0.93653505     0.46355217
O      -5.85391710     0.35365855    -4.07864119    -0.16683880    -0.99246908     0.93520091
O      -5.79316637     0.50330554    -8.04279253    -0.28822794     0.49377615    -0.93527680
