# total energy = -630.79581929 eV

CRYSTAL
PRIMVEC
        0.00279571     0.02951795    -7.98606283
       -7.83802570     0.01298533    -3.99532603
       -3.92160916     8.71933433     0.00634407
PRIMCOORD
56 1
Li     -3.98398518     2.03118513    -1.98419059     0.03840258     0.15248662     0.26511780
Li     -4.02272760     2.47139880    -5.91698321    -0.03331407    -0.68282201    -0.09526101
Li     -7.91445037     1.92617109   -10.08972013    -0.08609545     0.56320130     0.56395391
Li     -7.85577948     2.51382657    -5.86641058     0.29175606    -0.51661460    -0.31835346
Li     -3.86434597     6.67743951    -1.94214014     0.09167485    -0.91925362    -0.08851986
Li     -4.09406131     6.58386166    -5.97785548     1.41484770    -0.01744487     0.46703246
Li     -7.89652667     6.56891513    -9.94627126     0.13615720    -0.09593332    -0.06695192
Li     -7.84498779     6.23767796    -5.70363913     0.04981368     0.58267803    -1.22169046
Ti     -2.05885209     2.19516171    -3.86929945     1.45552864    -1.01425426    -0.63049624
Ti     -5.86409527     6.62499257    -7.91472042    -1.04307564     0.15637081    -0.85144865
Ti     -7.85074892     4.36234924    -7.79310152    -0.00951242     0.09757894    -1.93466810
Ti     -7.86415909     4.37723387    -3.65141497     0.14442746     0.58452735     1.28616245
Ti     -3.86983906     4.37585779    -7.81476716     0.52996636    -0.02016597    -1.29799997
Ti     -3.93538682     4.36600612    -3.72710631    -0.57436156     1.57581543     1.33705730
Ti     -5.67978341     8.62904358    -2.05756980     0.95786561    -0.40351760     0.33273698
Ni     -5.86390744     2.47507639    -8.08534758    -1.07714147    -0.36991319    -0.18052606
Ni     -5.98928515     2.32884067    -3.90046883     0.12633136    -0.54320408    -0.52101889
Ni     -9.81520127     6.65779241    -7.96410990    -0.02922955    -0.20469420     0.03693811
Ni     -9.82766939     6.39318166    -3.95817528     0.09023278     1.06421683    -0.75611768
Ni     -2.04059556     2.10353662    -7.92245128     0.08768575    -0.18981491    -0.21537968
Ni     -5.90623079     6.43987631    -3.98360966     0.52942757     0.03623454     0.18677080
Ni     -5.88785692     8.73746610    -5.93397138     0.06973575     0.71200595    -0.54663916
Mo     -5.87946813     0.05916796   -10.39158613    -1.70970529     0.20543173     0.67517450
Mo     -9.66119716     8.70669851    -6.38732357     0.25536106     1.48083231     1.16910036
O      -1.99005935     1.90108885    -1.93228236     0.14415224    -0.22145438     0.14556306
O      -1.98021254     1.83492852    -6.02649960    -0.65744508     0.52088180     0.16540251
O      -5.87079115     6.64220905    -1.89507584     0.03465488     1.82884884    -1.42208814
O      -5.82663589     6.94924293    -6.00352738    -1.42110683    -1.30667185     0.89847856
O      -5.96720469     2.05856418   -10.07225548     0.03605409    -0.54844834    -0.12478254
O      -5.92933813     1.84511447    -5.67239118     0.26739165    -0.45029794    -1.51814306
O      -9.84225079     6.95326320    -9.81086343    -0.18193795    -0.49052811     0.21566598
O      -9.71076621     6.81747133    -6.05756793    -0.26534502    -0.68705363    -0.66014930
O      -3.95333042     2.42372113    -3.87432670    -0.75296137    -0.69143464    -0.52599475
O      -4.01453772     2.45259689    -8.16022632     0.93487816     0.19487389     1.03018594
O      -7.95732501     2.51953999    -4.01562179     0.33286461    -1.33054812     0.53861629
O      -7.85325427     2.39411450    -7.91931215     0.06942458     0.71520934    -0.06960875
O      -3.95899672     6.28441230    -4.06086635     0.53746744     0.32978797     0.39887638
O      -3.96080287     6.36458744    -7.93121938     0.40968591     0.13909433     0.00179250
O      -7.82007950     6.35429599    -3.93275633    -0.28077284    -0.37329176     0.47190510
O      -7.88169778     6.38964778    -8.08628428    -0.18013317    -0.35683658     1.34531537
O      -3.89483706     4.47145106    -1.95582284     0.11837915    -0.04038469    -1.48151545
O      -4.01954565     4.31887197    -6.09284633     0.21111647     0.11390668     1.53992968
O      -7.94885867     4.43769039    -9.86528416     0.25275249    -0.00704000    -1.34846766
O      -7.70572326     4.40394757    -6.07098087    -0.32536755     0.31115701     1.35295023
O      -4.10231327     0.03635444    -2.17007071    -0.12067992     0.13614128     0.08041196
O      -7.90727770     8.71497328    -6.06754746    -0.04850730     0.17498846    -0.19008124
O     -11.59576197     8.58391033    -6.04782241    -1.94694353     0.28336641    -0.51770458
O      -7.83876871     0.06333950   -10.05998862     0.88857340    -0.06007613    -0.12834229
O      -1.99728878     4.03927105    -4.07578318    -0.09407170     1.00430502     0.34286065
O      -9.75384175     4.51268320    -4.09158757    -0.39719775     0.46064341     0.29979705
O      -5.89816844     4.35007330    -4.03160115    -0.18741921     0.51786933     0.28099933
O      -5.84308154     4.51769873    -8.14131478    -0.88680953    -0.76435427     0.54423085
O      -2.08546433     0.24009834    -3.87845083     0.41882632    -0.44945983    -0.64201726
O      -6.00600830     8.53005848    -8.09996315     0.38950964    -0.29328875    -0.11789018
O      -9.96935747     8.31736800    -4.15828595     0.88954034    -0.19477507     0.73402611
O      -5.88524448     0.65996253    -8.12478957     0.17163544    -0.79327337     0.69178584
