# total energy = -630.96768692 eV

CRYSTAL
PRIMVEC
        0.00279571     0.02951795    -7.98606283
       -7.83802570     0.01298533    -3.99532603
       -3.92160916     8.71933433     0.00634407
PRIMCOORD
56 1
Li     -3.92332645     2.29445810    -1.95288161     0.24411880     0.12861514    -0.35262757
Li     -4.00489887     2.08667057    -6.02625851     0.02504339     0.20465556     0.31578405
Li     -7.81546055     2.29463359    -9.96452389    -0.22140999    -0.00611197    -0.08388849
Li     -7.88154002     2.18775893    -6.00802328     0.33464752     0.30446085     0.48965700
Li     -3.87017785     6.47165839    -2.10555666     0.11268456    -0.08649072     0.49292192
Li     -3.87617892     6.50898758    -5.75699767    -0.04894778     0.08478189    -0.96865256
Li     -7.87170152     6.45891101    -9.83090470    -0.10110157     0.00289261    -0.25462845
Li     -7.81894411     6.40350732    -5.95652411     0.78277255    -0.19653429     0.30703855
Ti     -1.91442910     2.11154619    -4.09662851    -0.90994064    -0.03232539     0.50561829
Ti     -5.73621365     6.68113654    -8.04160713    -1.26625597    -1.67588083     0.63835291
Ti     -7.90978337     4.33404384    -7.71420553     0.33813921     0.90243716     1.80647555
Ti     -7.89261415     4.28622279    -3.65887081     0.53643127     1.12672507    -1.94309595
Ti     -3.89918176     4.39833741    -7.65227969     0.77564937     0.12739115    -1.10899429
Ti     -4.08124284     4.32341942    -3.81146504     1.07716996     0.04556859     0.04968339
Ti     -2.14439448     0.06342038    -2.00919686    -0.14729841    -0.74703794    -0.66284496
Ni     -5.80436662     2.43922726    -8.09645260    -0.80022892    -0.62838776     0.44355424
Ni     -5.97023814     2.12572488    -4.01006667     0.84824123     0.23799590    -0.01019518
Ni     -9.83090516     6.65653569    -7.89331798     0.71908125    -0.39002022     0.56802047
Ni     -9.61505943     6.46599809    -4.01450983    -1.07569077    -0.90750376    -0.23757053
Ni     -2.06470182     2.24480486    -7.90226057     1.62097043    -0.69502904    -0.52832885
Ni     -5.85467114     6.45475522    -3.90160851    -0.14503268     1.16236002    -1.05058849
Ni     -5.93684174     8.68930662    -5.95591092     0.03007811    -1.46332446    -0.26494238
Mo     -6.01882539     0.17533114   -10.32868088    -0.27466040    -1.19534288     1.45840822
Mo     -9.76757389     8.73269933    -6.38273133    -0.25728369    -0.56915474    -0.26994774
O      -1.88537607     1.91050550    -1.90324097    -0.32409381     0.46130902    -0.27018756
O      -2.04124926     1.83426186    -5.99094875     0.28300622    -0.05005950    -0.48742578
O      -5.89349368     6.79248636    -2.05788173     0.12860251    -0.27988717     1.35918740
O      -5.87567203     6.77864398    -5.96204475     0.22372284     0.95227422    -0.13514136
O      -5.87361231     2.05428516   -10.12052917    -0.20269334     0.39604250    -0.01455447
O      -5.97378484     1.93095698    -5.86555298     0.81722907    -0.69778332    -0.16850371
O      -9.76477620     7.03385592    -9.71484107    -0.25052406     0.01781548    -0.56261400
O      -9.59517242     6.77180041    -5.94320282    -1.52266804     0.71508447    -1.17025936
O      -3.98781261     2.42127702    -3.94460840     0.00969718    -1.60390364    -0.75134037
O      -3.89132277     2.51363608    -8.08969506    -0.33526762    -0.12872167     0.89635122
O      -7.82606604     2.40066122    -4.01604898    -0.54133350    -0.46990831     0.74822960
O      -7.84279259     2.41536372    -8.00187418     0.85114620    -0.93610992    -0.22321838
O      -3.87125952     6.31865487    -4.00948076     0.50809662     0.15749565     0.88238085
O      -3.90641500     6.34261339    -8.06413052     0.60297869    -0.06276401     0.50347609
O      -7.74236734     6.32278164    -3.90323402    -0.49060602    -0.33546562    -0.04122745
O      -7.87376515     6.23509446    -7.89984017     0.30551255     0.90405681    -0.56762250
O      -4.05761241     4.31542622    -2.07522204     0.79735905     0.50854053     0.84386954
O      -3.80353915     4.34658447    -5.91834471     0.06716974     0.16188764    -0.03835346
O      -7.89833783     4.37408273    -9.90771747     0.39896579    -0.24055727     0.93119159
O      -7.89834743     4.31897277    -5.90939899     0.18316928    -0.02391759    -2.08034695
O      -3.92189994     0.14455410    -9.94526940    -1.11569834     0.15956038    -0.34158959
O      -3.94255371     0.04846375    -6.20679637    -1.42015458     0.04066290     0.33611139
O     -11.59071239     8.58812544    -6.20452418     1.14060421     0.14755374     0.67402745
O      -7.80043265     0.12919596   -10.18942320     0.48070490     0.13965213     0.39636774
O      -1.93706630     3.95783208    -4.10675256    -0.68183145     0.79195663     0.61470441
O      -9.71061747     4.53937191    -4.07001691    -1.37125655     0.70263085     0.39873921
O      -5.90638357     4.60785273    -4.05651599    -1.09247439    -0.44820770    -0.05128270
O      -5.79688678     4.40541031    -7.92636116    -0.80016739    -0.34278171    -0.09166964
O      -1.93400914     0.11075251    -3.94450679    -0.06482180     0.52224187    -0.22218538
O      -5.82664550     8.44730483    -8.01002141     0.08769031     1.08979123    -0.21218039
O      -9.76848378     8.26764823    -4.01006930     0.65474201     0.82432000    -1.12114374
O      -5.91871250     0.55237232    -8.19181375     0.43402804     0.70565894     0.70052518
