# total energy = -631.04942021 eV

CRYSTAL
PRIMVEC
        0.00279571     0.02951795    -7.98606283
       -7.83802570     0.01298533    -3.99532603
       -3.92160916     8.71933433     0.00634407
PRIMCOORD
56 1
Li     -3.85300452     2.20645988    -1.94669192    -0.61824790     0.15026481    -0.12635603
Li     -3.82343582     1.91438556    -6.09911011    -0.54420920     0.24866433     0.48452996
Li     -7.80519759     2.30417462   -10.04586547    -0.06896263    -0.06629892     0.24047192
Li     -7.80430168     2.32869560    -5.95044680     0.13892322    -0.06962680    -0.09335509
Li     -3.66308164     6.25783635    -1.83408368    -0.87056626     0.33545845    -0.10917003
Li     -3.89759504     6.42666275    -5.94677419    -0.29519392    -0.24919016     0.50876092
Li     -7.92449651     6.46029133   -10.05165605     0.39845300     0.55084364     0.58178624
Li     -7.80386162     6.41538563    -5.80764980     0.02880471     0.09196945    -0.43137247
Ti     -1.94080797     2.40672945    -3.91994236    -0.73782041    -0.91611279    -0.92939312
Ti     -5.83541586     6.95433900    -7.77997840     0.09737194     0.96944773    -0.83581500
Ti     -7.77437120     4.42496431    -7.81738100     0.32859224    -0.26868473     0.15537147
Ti     -7.90334800     4.42343929    -3.78409486     0.86069292     0.03181174     0.52300603
Ti     -3.89929715     4.20129622    -7.71438301    -0.35226890     1.14623794    -0.99468367
Ti     -4.06350475     4.39401623    -3.78395664    -0.25786395    -0.06649528     1.64383381
Ti     -6.13254535     8.65534699    -2.18299898     0.41908103     0.60321257    -0.22144892
Ni     -5.83359194     2.22584925    -8.08042225    -0.58749175    -1.56353204    -0.11194086
Ni     -5.87524576     2.30264679    -4.16362049     0.11144511    -1.09866507     0.21118921
Ni     -9.78805576     6.47648825    -7.97754786     0.19252355    -0.19131721     0.78624571
Ni     -9.74542472     6.57607658    -3.88412716    -0.16083743    -0.14980968    -0.97255089
Ni     -1.87149933     2.17174401    -8.00343955    -0.37202246    -0.08168546     0.48716730
Ni     -5.74449975     6.67998041    -3.81239423    -0.75514733    -0.55036338    -0.88764316
Ni     -2.00484452     0.04042764    -5.88390231    -0.09699430    -0.64633918     0.37419383
Mo     -9.93466186     8.70863851   -10.29384449     0.50722362    -0.15968581    -0.65370989
Mo     -9.83749068     8.56693841    -6.38236827     1.25718346     0.36168867    -0.05824090
O      -1.91305449     1.91682449    -1.97127233    -0.21788032    -0.40987502    -0.80052740
O      -1.92853589     1.85058144    -5.87427914     0.12202693     0.48710941    -0.70651856
O      -5.87602232     6.80319018    -1.88952430     0.10646331     0.32009932     0.22028937
O      -5.87304184     6.86897191    -5.75452815     0.22294122     0.39428249    -1.33650235
O      -5.85422595     1.99483855   -10.14652121    -0.07388051    -0.14984873     0.76614557
O      -5.85046712     1.90322610    -6.10476119    -0.32233054     0.58248124     0.08735473
O      -9.88172196     6.76000094   -10.00571555     0.84054738     0.42557681     0.95168993
O      -9.69505227     6.73104200    -5.88699774    -0.21418244    -0.16698210     0.10074698
O      -3.87470367     2.40388876    -4.02341507    -0.43954486     0.61364402     0.27963197
O      -3.83922177     2.34531073    -8.00138042    -0.41344060    -0.58692949    -0.03952831
O      -7.83894986     2.41236175    -4.02419321     0.88083853     0.25643737     0.14821098
O      -7.89121805     2.42286318    -8.01968210     0.56527443     0.13717002    -0.12962182
O      -3.82664747     6.35214378    -3.88309103    -0.05681852     0.03275875    -0.52157935
O      -4.00637026     6.37561982    -7.88602333    -0.18077963    -0.26088779     0.06754631
O      -7.76071631     6.36106243    -3.97762591    -0.54655751     0.16713027     0.45377220
O      -7.73960706     6.33818730    -7.94383714     0.60210395     0.93552854     0.31154504
O      -4.05785139     4.47824856    -1.95319737     0.37036879    -0.83134591    -1.21066243
O      -4.05196238     4.38450207    -5.99127287     0.24620077     0.49923197     0.38520850
O      -7.91188219     4.67158795    -9.98920633    -0.34035663    -1.69229286    -0.30019466
O      -8.05457020     4.41140264    -6.06390021     0.59981003     0.09330537     0.06023672
O      -7.95571630     8.65955508    -2.12664410     0.50393459    -0.13408909     0.36879878
O      -4.08889912     0.05942008    -6.03369127     0.44025568    -0.78545492    -0.12249476
O     -11.58127493     8.60266701    -6.09188734    -0.58363681     0.25258487     0.19210455
O     -11.67162252     8.66494227   -10.09683555    -0.66637395     0.34297195     0.15274755
O      -2.06421289     4.30877075    -4.02217966     0.98617295    -0.88556075    -0.24760501
O      -1.94424114     4.03841014    -8.00255001    -0.70512892     0.21411217     0.05949360
O      -5.94134265     4.26777084    -4.09070261    -0.27291738    -0.50378869    -0.05429693
O      -5.91988745     3.99780450    -8.08343843     0.55953315     1.69896432     0.44942210
O      -1.98462736     0.26772296    -4.00486467     0.19295437    -0.13908115     0.71344104
O      -1.96540054     0.11928566    -7.94599388     0.13578836    -1.52805207    -0.00920545
O      -5.82016757     0.31881821    -4.10383478    -0.62996274     0.66887340     0.26057263
O      -5.80684052     0.35812011    -8.20316222    -0.35101819     0.52002303    -0.04666630
