# total energy = -631.21081137 eV

CRYSTAL
PRIMVEC
        0.00285542     0.02004370    -7.95977623
       -7.82940539     0.00763210    -3.98158109
       -3.91729101     8.74642787     0.01461334
PRIMCOORD
56 1
Li     -3.86177382     2.53231900    -1.90248592    -0.26556517    -0.69654578    -0.30365856
Li     -4.03459309     2.18237019    -5.99702317     0.07934227    -0.09912018    -0.21992675
Li     -7.81927092     2.08399733   -10.11000395    -0.18156021     0.01439336     0.55200975
Li     -7.71929624     2.43336955    -5.92112054    -0.47492714    -0.05835984    -0.13192150
Li     -3.94585594     6.25837011    -2.03815428     0.22668948     0.78168218     0.61556627
Li     -3.78483230     6.29832442    -5.84402781    -0.19883207     0.61450101    -0.32873920
Li     -7.79141485     6.60105908    -9.99864587     0.12607821     0.27969221     0.38424924
Li     -7.84965158     6.44952886    -5.86422547     0.08629805     0.00492065     0.45539688
Ti     -2.06514923     2.15788549    -4.09437104     0.70858690     0.18734205     0.51118333
Ti     -5.95478841     6.71461144    -7.82245327     1.84175450    -0.11700223    -0.59200253
Ti     -7.93470886     4.36920507    -7.81821285     0.70068071    -0.35711716    -0.86622605
Ti     -7.81481471     4.41706365    -3.65247631    -0.24708173     0.30051875    -2.49051703
Ti     -3.95292854     4.36602905    -7.77365133    -0.63381501    -0.04838348     0.44609882
Ti     -3.99643417     4.40440060    -3.84449257    -0.19639655    -0.43167972     0.08105588
Ti     -5.84668217     8.73629183    -2.01559483    -0.93614979     0.59683583    -0.19771573
Ni     -6.00014582     2.33356808    -8.06618943     0.93350037     1.32498915     0.44657008
Ni     -5.91096980     2.25323654    -4.05681787     0.20337054    -0.84223147     0.71827012
Ni     -9.68757739     6.60479040    -7.90209459    -1.15306032    -0.27827215     0.65881430
Ni     -9.85733689     6.34160405    -3.92211949     0.68818768     0.56330570    -0.63407049
Ni     -1.95946498     2.36698091    -8.00242073    -0.52828500    -0.49705823     0.35611972
Ni     -5.77805997     6.62859653    -3.96426871    -1.00521056     0.15133769     0.61895623
Ni     -5.83558666     8.74188815    -5.95300199    -0.47342875     0.20806531     0.68325141
Mo     -9.84752374     8.76923925   -10.11418280     1.71542345     0.62189850    -0.28314923
Mo     -9.78613615     8.60021764    -6.27981435    -0.26772918     0.76734045     0.34276161
O      -1.84221232     1.97750049    -1.86289743    -0.53164274    -0.80596146    -0.90322485
O      -2.00193426     1.89292630    -5.96513223     0.05898451    -0.47569040    -1.13362650
O      -5.77892961     6.83618563    -2.00498047    -0.68330643    -0.45634220    -0.00493898
O      -5.84032763     6.86688642    -5.81941502     0.00710386     0.19139068    -1.16681003
O      -5.85696419     2.05044370   -10.09883583    -0.35040141    -0.04928522     0.73120789
O      -5.93729855     1.91572807    -5.89365939     0.31510698    -0.00236343    -0.82694791
O      -9.70276497     6.94305138    -9.75469051    -0.29446045    -1.49987068    -0.02272645
O      -9.81380771     6.69769628    -5.96860255     0.70730100    -0.27936670     0.06211679
O      -3.94580759     2.33820233    -3.97598488     0.00742076     0.39591390    -0.29969033
O      -4.01930235     2.44200719    -7.98804374     0.36446874     0.34426099     0.15166886
O      -7.92827751     2.43950796    -4.00954729     0.60708620     0.58147990     0.46660292
O      -7.89723492     2.40112931    -8.01872441     0.64964833     0.45243567    -0.21602507
O      -3.89935892     6.31117451    -3.96136939     0.86790108     0.72193462    -0.26638435
O      -3.95389420     6.31359975    -7.96807668    -0.13889514     0.36692747     0.52255071
O      -7.84941250     6.39347359    -3.87761270    -0.06957124    -0.74689865    -0.88524603
O      -7.78403629     6.43679169    -7.90331271    -0.88222774    -0.10119903    -0.12512113
O      -3.85054958     4.43612665    -2.07970093     0.35316050    -0.63041978     0.43995437
O      -3.72978855     4.44574631    -5.98487328    -0.41659754    -0.54970674    -0.01683077
O      -7.75974723     4.51735928    -9.92479463    -0.26469822    -0.04662295     2.24270265
O      -7.60896385     4.40451264    -6.13308016    -0.21038933     0.34610293     1.66924316
O      -7.88033267     8.71834517    -2.03128937     0.39699548     0.12171892     0.34966392
O      -7.98812339     8.65183331    -5.99721090    -0.05257510     0.13457352    -0.00385995
O     -11.58379971     8.51516099    -5.95668696    -0.55403423     0.82703033     0.03981529
O     -11.62735028     8.68205122    -9.95268393    -0.58297964     0.44951220    -0.09950643
O      -1.96598456     4.09402793    -3.97729562    -0.57562295     0.24905835    -0.23208112
O      -9.77287683     4.45789561    -4.05229695     0.25828497    -0.42766912    -0.08793017
O      -5.88502329     4.24606613    -3.93349588    -0.06639392    -0.55515794    -0.75229934
O      -5.86143343     4.46362954    -8.11577717     0.06944150    -0.64589927     0.39839000
O      -1.86071003     0.26223153    -3.96385404    -0.13821718    -0.37388937     0.47838350
O      -5.90823590     8.54952180    -7.97224053     0.14825298    -0.51362628     0.26422685
O      -5.87915704     0.22635667    -3.93682050    -0.18186792     0.21619217    -1.17732702
O      -6.00938891     0.55570753    -8.02367034     0.47418354    -0.66708806    -0.53075413
