# total energy = -630.60997672 eV

CRYSTAL
PRIMVEC
        0.00285542     0.02004370    -7.95977623
       -7.82940539     0.00763210    -3.98158109
       -3.91729101     8.74642787     0.01461334
PRIMCOORD
56 1
Li     -3.82977107     2.51394333    -1.76461336     0.04125135    -0.76731765    -0.67641027
Li     -3.97161825     2.30671835    -6.03984094     0.00470033    -0.23172962     0.68942612
Li     -7.82959764     2.07400358    -9.81152543     0.39138526    -0.15596366    -1.23986656
Li     -7.92044896     2.09484555    -6.03400484     1.29293156     0.16746927     0.41470315
Li     -3.91907446     6.31347112    -1.92766381    -0.23618060     0.36799670    -0.13925325
Li     -3.89385233     6.83102189    -5.80581371    -0.39303974    -0.02101834     0.08469630
Li     -7.89710898     6.23995763    -9.88236158    -0.21104140     0.88876185     0.04611906
Li     -7.94781061     6.47162767    -6.00139363     0.49402212     0.17329159     0.74889906
Ti     -2.00093236     2.37896755    -4.13147198    -1.06978137    -1.51943694     0.49443073
Ti     -5.82000235     6.81706414    -7.89324836    -0.81439520    -0.85086764    -0.07038409
Ti     -7.76869357     4.41470967    -7.65400800     0.18197144     0.41781471    -0.23003477
Ti     -7.82971810     4.23569047    -3.76982253     0.29817153     0.90107604     0.22036111
Ti     -3.89572717     4.34570068    -7.63412473    -0.91905329    -0.02167900     0.34552697
Ti     -4.07670839     4.45484293    -3.75911451     0.01970553    -0.29666219     0.68315668
Ti     -1.80562662     0.04264580    -2.28730794    -0.05132937    -1.43803379    -1.15103477
Ni     -5.89901482     2.30103797    -8.09341138     0.59061528     0.94154908     0.79649117
Ni     -5.84532251     2.25251313    -4.03391635     0.13703273    -0.84692257    -0.62651442
Ni     -9.91601712     6.46644899    -7.83942922     0.64325718     0.41333887    -0.05562418
Ni     -9.80221515     6.17231180    -4.06454565    -0.03929093     0.52086480     0.07891841
Ni     -1.87189223     2.16717206    -7.90219600    -0.71586220     0.04211970    -0.51668351
Ni     -6.09571375     6.63999886    -3.88708499     1.09051889    -0.09418807    -0.89267668
Ni     -1.95117739     0.01607465    -5.92365813     0.40535251    -0.68668153    -0.65095403
Mo     -5.79437736     0.07320797   -10.26925709    -0.41145132    -1.31299338    -0.45004538
Mo     -5.77813291     0.03893102    -6.20825213     0.33605647    -1.17910834    -0.73521817
O      -1.82966630     1.84952317    -2.01882462    -1.46728952     1.63276386     0.55936949
O      -1.93188184     1.85973326    -6.01983745    -0.24095599     0.48002829    -0.00980187
O      -6.02556140     6.90050724    -2.03348201     0.37598815    -0.95105244     1.43891682
O      -5.91507525     6.86009050    -5.78213097     0.08520635     0.41950402    -1.26808314
O      -5.70793584     1.96898832   -10.04991318    -1.11773129     1.40983077     1.18538609
O      -5.91319950     2.05320108    -6.06349996    -0.24011614    -0.63195710     0.88911754
O      -9.88341614     7.00858170    -9.77030388     1.09921667    -1.04459069     0.42302644
O      -9.80387882     6.82300777    -5.90705344    -0.58668991     0.14230297    -0.41947496
O      -3.91180720     2.34316574    -3.91967002     0.15844048     0.38586978    -0.82314730
O      -3.97282252     2.37923646    -7.85467891     0.44958251     0.28227127    -0.96533050
O      -7.76653060     2.33166672    -3.97702969    -0.36394260    -0.07453312    -0.10396367
O      -7.83608960     2.47000075    -8.06930039    -0.43673081     0.32835926     1.07472995
O      -4.00818965     6.35249103    -3.93800005     0.11955110     0.10130829     0.52446739
O      -3.94960250     6.30777232    -7.97609804    -0.16711390     0.07994395     0.58066296
O      -7.92773204     6.24844158    -4.01945667    -0.14954894     0.05061546     0.53729604
O      -7.82838107     6.37115690    -7.88318684     0.04723323    -0.20153349    -0.42047958
O      -4.13083074     4.28541102    -1.96515719     0.64236145     0.86312643    -0.41722284
O      -3.87769567     4.26179381    -5.87174888    -0.21674124     0.12671266    -0.53417489
O      -7.93852032     4.41880504    -9.95128872    -0.10309900    -0.45423852    -0.04475809
O      -8.17591728     4.54678027    -5.92775530     0.82216298    -1.04913810    -0.69277759
O      -7.93839843     8.71391103    -2.13587293     0.85515603     0.08120199     0.54041244
O      -7.90981715     8.68178290    -6.08151859    -1.06789947     0.25452996     0.02031893
O      -3.87025049     8.64749609    -2.03709941    -0.15616741     0.43868426    -0.39724350
O      -7.63638724     0.07334447    -9.93960564    -0.44412089     0.43965957    -0.02019559
O      -2.14257753     4.17475545    -3.94991856     1.82292511     1.28926849    -0.15443241
O      -2.02282814     4.22779213    -7.93480762     0.68186575    -0.26660013    -0.52792712
O      -5.89381055     4.14229339    -4.08623377    -1.38095384    -0.21832115    -0.16886118
O      -5.89167842     4.40481639    -7.91941730    -0.37012837    -0.24391727     0.40151962
O      -2.01520468     0.32821743    -4.14954427     0.27666033    -0.30487126     1.93394848
O      -5.71936403     8.59433523    -7.82773270    -0.37119340     0.43977441    -0.19028755
O      -5.89521468     0.25252013    -4.14637641     0.01784623     0.66685204    -0.04521557
O      -5.91644552     0.50076911    -7.98937028     0.12028836    -0.49524386    -0.07088226
