# total energy = -629.86416286 eV

CRYSTAL
PRIMVEC
        0.00279571     0.02951795    -7.98606283
       -7.83802570     0.01298533    -3.99532603
       -3.92160916     8.71933433     0.00634407
PRIMCOORD
56 1
Li     -4.05126327     2.22160221    -1.99044333     1.04610400     0.62592272     0.16979953
Li     -3.97477794     1.95009899    -6.02787237    -0.19664037     0.35114960     0.30006206
Li     -7.67868579     2.33639365   -10.06645967    -0.52684515    -0.12226443     0.53928810
Li     -7.83668903     2.27875553    -5.92594783     0.15525001    -0.19640062    -0.00101438
Li     -3.94632012     6.49715361    -2.10174718    -0.18314636     0.10503323     1.13386745
Li     -4.02159704     6.54304056    -5.96921348     0.24964521    -0.27350235     0.59855020
Li     -7.93789526     6.39857371   -10.03198524    -0.32178936    -0.11343752     0.83229473
Li     -7.75709499     6.24289457    -5.84851708    -0.60457448     0.16617135    -0.49828992
Ti     -1.91488801     2.19431728    -4.11974370     0.30336034    -1.32795514     1.50199079
Ti     -5.90943563     6.86942508    -7.90524197     0.72250272    -0.07126875    -0.07547649
Ti     -7.74500660     4.37084755    -7.85914446     0.38824194    -0.57605904     1.04762071
Ti     -7.71089767     4.34179934    -3.81323593    -0.61783823    -2.04679524    -0.11189408
Ti     -3.71766955     4.43470563    -7.66576619    -1.41492677     0.09568629     0.57052593
Ti     -3.87000600     4.40296869    -3.76523453    -0.85291347    -0.75020638    -0.69288925
Ti     -6.18072188     8.71883506    -2.09704698     2.05504506     0.78901506    -0.40170914
Ni     -5.76124035     2.34550446    -7.93213805    -0.43918650     0.26305814    -0.41586836
Ni     -5.83456453     2.02585440    -3.93372856    -0.87734170     0.26955993    -0.25375678
Ni     -9.96819191     6.67204273    -7.88279148     1.39215366    -0.68315227    -1.11940545
Ni     -9.81250049     6.50878806    -4.10093790     0.26798190    -1.64193994     0.59640502
Ni     -1.95613468     2.28864370    -8.00974085     0.56369429    -0.74760671     0.03467145
Ni     -6.03187913     6.57351426    -3.82258647     1.81345828    -0.12334198    -1.37158912
Ni     -2.09494573     0.05319542    -6.02161836     0.07829278    -2.89336820     0.29640186
Mo     -5.95966457     0.12976779   -10.26104641     0.46050490    -1.68184351    -1.32407375
Mo     -9.77393195     8.63475229    -6.40931670    -1.86639180     1.98062612     2.47398943
O      -1.96217308     1.92484822    -1.98046629    -0.06901157    -0.75800585    -0.65791233
O      -2.09244475     1.81555953    -5.96917853     0.48393430     0.86566543    -0.73636380
O      -5.87334396     6.82921790    -1.83690046    -0.65570475    -0.30096791    -1.17054592
O      -6.00166923     6.80051716    -6.01993145     0.93687239     1.33934127     0.49177408
O      -5.84296486     2.03524351   -10.05288285     0.41518426     0.14863514    -0.02115262
O      -5.86335678     1.83737328    -5.72638202     0.07029633    -0.36039189    -1.69582606
O      -9.88176403     6.87786173    -9.73807737     0.23527524     0.98155877    -0.33330092
O      -9.74612358     6.82911034    -6.02522900    -0.14359663    -2.78216811    -0.23153145
O      -4.00297908     2.43074938    -4.01435983     1.05266673    -0.71771088     0.00210809
O      -3.83706607     2.55206600    -8.02245557    -0.36774395    -0.76173454     0.61463348
O      -7.85609645     2.28096190    -3.94871077     0.02527969     0.99614657    -0.38250409
O      -7.64249397     2.25416087    -8.01193091    -1.85759097     1.06486165     0.01063050
O      -3.94559081     6.33459234    -3.93024812    -0.42012867     0.88912825    -0.14136447
O      -3.97709541     6.33245709    -7.94857789    -0.18825250     0.91309394    -0.27315078
O      -7.84885339     6.22583498    -3.94897511    -1.11206043     1.44838175    -0.02647215
O      -7.77228427     6.29135391    -7.98293911    -0.86248403     0.25854896    -0.10502777
O      -3.93641655     4.29181105    -2.02786179    -0.04898675     0.71526345     0.18688344
O      -3.84467771     4.58163219    -5.90089838    -0.06184779    -0.60269423    -0.69521600
O      -7.87828652     4.22544311   -10.01482092    -0.16657582     0.55908666     0.27298288
O      -8.05508129     4.23075230    -6.06822622     0.65119548     0.42575856    -0.31874154
O      -4.02621594     0.07694903   -10.00452565    -0.43596415    -0.12687099     0.18469520
O      -7.95436415     8.57425953    -6.02956341     0.58351066     0.77414388    -0.30076433
O     -11.59279973     8.55860623    -6.18083970     0.69714124     0.61962121     0.00545386
O      -7.63781634     0.22777893    -9.99035315    -2.59126038    -0.56931279     0.13102203
O      -1.93917198     3.96189426    -4.06118773    -0.03025637     1.10410880    -0.27548900
O      -9.76788064     4.52559494    -4.07563460     0.68449979     0.35867190     0.07870734
O      -5.89947977     4.52169384    -4.09201404     0.79957998     0.61461696     0.39780261
O      -5.89171246     4.30133792    -7.93652129     0.90030942    -0.62356012     0.06771118
O      -6.04359578     8.72895139    -3.97444864     0.44095186     0.48084449    -0.06828385
O      -5.79248347     8.73666357    -8.05148274    -0.30192354    -1.06276385     0.77412457
O      -9.77226111     8.31732998    -4.09855360    -0.19332520     0.78441316     1.59925710
O      -5.70922035     0.47310522    -8.11276252     0.04046877     1.00023310    -1.20646644
