# total energy = -630.45716060 eV

CRYSTAL
PRIMVEC
        0.00285542     0.02004370    -7.95977623
       -7.82940539     0.00763210    -3.98158109
       -3.91729101     8.74642787     0.01461334
PRIMCOORD
56 1
Li     -3.99021617     2.13911244    -2.03171093     0.61377541     0.22805587     0.41916867
Li     -3.94378934     2.38410133    -5.99443634    -0.25280417    -0.10461007    -0.02282936
Li     -7.82354736     2.07117283    -9.96062063    -0.20692023     0.81256578     0.05020656
Li     -7.82593220     2.10025106    -5.78840657     0.10626118     0.12948386    -0.29076927
Li     -4.06113480     6.47310172    -1.96298659     0.63604934    -0.02306736    -0.09767850
Li     -3.97238022     6.76988631    -5.88712066    -0.81980797    -1.04182632     0.30650184
Li     -7.85166853     6.48990151    -9.92766705    -0.37648586    -0.37969241     0.09070614
Li     -7.95790029     6.51206111    -5.74862873     0.33292894    -0.07626491    -0.58483487
Ti     -1.91440571     2.10730070    -3.98430577     0.01772799     1.15912287     0.31269241
Ti     -5.90312889     6.73759418    -7.90418381    -0.55445527    -0.62489573     0.12451468
Ti     -7.72186079     4.37174786    -7.67446802    -1.36492769     0.35151855    -0.02032924
Ti     -7.62708318     4.35436995    -3.74916163    -0.51278481    -0.89626608     0.78575087
Ti     -3.79577678     4.37871430    -7.83916215     0.80813430    -0.65393385     1.19563495
Ti     -3.81203285     4.40286939    -3.78749510     0.50767313    -0.34701469    -0.70357369
Ti     -6.10030005     8.69809842    -2.09579481     0.08119809     1.21659628    -0.75325874
Ni     -5.95378826     2.38798086    -8.07274046     1.64080592    -0.55681430     0.34798409
Ni     -5.82117353     2.16556351    -3.95109985     0.17068022    -0.15109788    -2.05170601
Ni     -9.83974031     6.61354989    -7.81385484    -0.30594260    -0.31920173    -0.83118190
Ni     -9.90854402     6.69037827    -3.84580695     0.44921427    -0.66050795    -0.92314986
Ni     -1.87285678     2.11525885    -7.89774860    -0.81167595     1.09740053    -0.61291417
Ni     -5.90905133     6.50995781    -3.88712019    -0.30731241     0.65353307    -1.16741288
Ni     -5.89196864     8.75780952    -5.94498401    -1.11383760     1.60297222     0.35395026
Mo     -9.97640807     8.73109176   -10.19754768     3.09533712    -0.61042345    -0.08558398
Mo     -9.76908052     8.74632232    -6.35535116    -0.62506692     0.69427686    -0.15535766
O      -1.91945934     1.92995806    -1.99028136    -0.20327333    -0.98566737     0.45223533
O      -2.03662018     1.91129934    -5.90308267     0.90205969    -1.30630017    -1.83767002
O      -5.91517761     6.79066381    -2.04051179    -0.17318581    -0.40904561     0.75910431
O      -5.86894806     6.96546250    -5.92439653    -0.34368599    -1.00602578    -0.05244849
O      -5.82786691     1.94670387   -10.07706686    -0.55494944     0.90259171     0.78510256
O      -5.90713865     1.89595414    -5.87859826     0.65511468     1.33459927    -0.27317995
O     -10.02733410     6.84894061    -9.86906362     1.97105877    -0.07730672     0.83235627
O      -9.83885984     6.88030834    -5.94171926     0.29713729    -0.73303625     0.97724159
O      -3.77904208     2.33805775    -4.00910561    -1.56263619     0.30486912     0.45077302
O      -4.03320164     2.47693510    -8.02748566    -0.25899629    -0.11101763     0.01458331
O      -7.79285502     2.33537829    -3.89136845     0.22357292     0.02083380    -0.08574484
O      -7.81087261     2.42645072    -7.99159548     0.79504371    -0.35577411    -0.13753943
O      -3.99606637     6.40242827    -3.89799291     0.77722841    -0.57420495    -0.36393225
O      -4.02612859     6.35904910    -7.99873040     0.69059577     0.99720678     0.26833042
O      -7.90310290     6.25396565    -3.92965634     0.10819465     1.00272421     0.24444826
O      -7.86833554     6.40547802    -7.89513279     0.00524175    -0.16239728    -0.01268936
O      -3.95160732     4.41916240    -2.04542100    -0.07101589     0.20653874     0.54821752
O      -3.95926093     4.45364352    -6.07064252     0.08916054     0.11704613     0.22877401
O      -7.74092830     4.44010067    -9.93569523    -0.10812162    -0.01599671    -0.46551365
O      -7.88938481     4.34293353    -5.92438391     0.10842783     0.35097555     0.09408309
O      -3.98579322     0.01073389    -2.14252088    -0.40568548    -0.68109045     0.31062894
O      -4.04231421     0.08095401    -6.16339048     0.90179584    -0.63720235     0.60641906
O      -7.62645563     0.08827436    -6.02639104    -0.51224262    -0.62577359    -0.16104769
O      -7.76597359     0.07966258   -10.14186772    -2.74589431    -0.00566383     0.38565182
O      -1.88356419     4.02571092    -3.99905851    -0.91667879     1.15368269    -0.11329899
O      -1.88340762     4.05483440    -7.90704049    -0.10623194    -0.50665715    -0.17559830
O      -5.71878353     3.98395895    -4.07547448    -1.01074761     1.02575357     0.25128618
O      -5.89796320     4.55193261    -7.93729249     0.64294365    -0.32288111    -0.31732944
O      -1.82763494     0.16063032    -3.97609987    -0.05886435    -0.08110951    -0.29904039
O      -5.84614839     8.61061566    -8.14282231     0.03994320    -0.08673322     1.60813225
O      -5.81655429     0.30654994    -4.02650854     0.01335123    -0.62063627    -0.15560672
O      -5.84407744     0.49575346    -8.19785048    -0.47824820     0.24394089     0.16742238
