# total energy = -630.09499049 eV

CRYSTAL
PRIMVEC
        0.00279571     0.02951795    -7.98606283
       -7.83802570     0.01298533    -3.99532603
       -3.92160916     8.71933433     0.00634407
PRIMCOORD
56 1
Li     -4.06037282     2.39715394    -1.93117970    -0.03599424    -0.04299617     0.65944414
Li     -3.96723570     2.15381859    -5.77435336     0.24468279     0.18264655    -0.65881721
Li     -7.89656992     2.16307207    -9.86209631     0.68727063     0.05473858    -0.47661667
Li     -7.70382301     2.10909840    -5.90633966    -0.55214747    -0.18279695    -0.06209819
Li     -3.81598454     6.70259480    -1.90403326    -0.33547046    -0.17586144    -0.07332557
Li     -3.91187526     6.54167790    -5.93957061    -0.53529070     0.24992375     0.09613172
Li     -7.87550835     6.28772685    -9.97703927    -0.00117612     0.17225420    -0.03790411
Li     -7.68485766     6.64652935    -5.88958236    -0.93010468    -0.52812759    -0.22219784
Ti     -2.02338523     2.39592505    -3.93143631    -0.59108484     0.13362052     1.05008708
Ti     -5.90659938     6.87436511    -8.00880833     0.26267602    -0.43595730     1.11015479
Ti     -7.64843431     4.40912275    -7.76563355    -0.22004404     1.46318642     0.56787362
Ti     -7.86975355     4.22440367    -3.82406317     0.16665279     0.65097773     0.16231750
Ti     -3.90725419     4.36918475    -7.67929684    -0.40740401    -0.02263102     0.02186928
Ti     -4.06525965     4.51952640    -3.69421314    -0.68544675    -0.98148976     1.17830135
Ti     -5.94331790     8.72240426    -2.17113273     0.10604067     1.37239054    -0.58912904
Ni     -5.94658410     2.14216678    -7.88364794     1.06085747     0.04956782    -1.03575583
Ni     -5.87804690     2.19833345    -3.94697934    -0.52622348    -0.37465713     0.13757471
Ni     -9.81182706     6.47668213    -7.90281020    -0.38468410    -1.03132243    -0.86724375
Ni     -9.75895603     6.52311135    -3.87882355    -0.57925571    -0.14379670    -2.35487702
Ni     -2.02242805     2.22935855    -7.95275520    -0.31835770    -0.79985560    -1.00715767
Ni     -5.94733686     6.66725569    -3.99848111     0.00409349     0.03372607    -0.18312998
Ni     -1.92472870     0.12701617    -5.96118090     0.41267040    -0.92232912    -1.21340581
Mo     -9.83426358     8.57245527   -10.34722254    -0.77761439     2.21693964     0.52107848
Mo     -9.62395549     8.69626593    -6.45653780    -2.58371255     0.74188406     0.83640560
O      -2.01314191     1.95037984    -1.98648952     0.26826665     0.03220381    -0.35797047
O      -1.92594912     1.87690524    -6.14583770    -0.44828612     1.86561409     2.13368057
O      -5.79889665     6.84563422    -1.93556937    -0.81040731    -0.26783734    -1.02552618
O      -5.89561437     7.04378086    -5.96408908     0.34385413    -0.84451163     0.56448618
O      -5.90127506     1.92425315    -9.93409485    -0.58877571    -0.77686550     0.75446069
O      -5.80269185     1.87210378    -5.95648522    -0.39853936     0.07437121    -0.54517560
O      -9.83525597     6.72454773   -10.03603284     0.13041228    -1.58026665     0.47982732
O      -9.78474263     6.85386823    -5.87711968     0.76875146    -0.10494872     0.38715576
O      -3.93890490     2.42906644    -3.75742398     0.85520008    -0.28613453    -1.62347738
O      -4.10973388     2.42340694    -7.98980519     0.58807584    -0.09963903    -0.01166162
O      -7.91253552     2.29495454    -4.00520757     0.51088533     0.40635791    -0.04907498
O      -7.82631983     2.53266014    -7.85401820    -0.76618160    -1.51264200    -0.97282434
O      -4.01374400     6.35899761    -4.02041339     0.40661154     0.61434222     0.08636520
O      -3.98287424     6.39001678    -7.98713620     1.17960447     0.16466018     1.03380027
O      -7.85364721     6.28321155    -4.06891744     0.24979375    -0.12617288     1.08591634
O      -7.88974887     6.43605981    -7.97515483     0.51146450    -0.33566387    -0.25587133
O      -4.13716707     4.43647837    -1.91005891     0.26333824    -0.18866618    -0.98786333
O      -3.96777635     4.04338706    -5.92419631     0.08504606     1.27937039    -0.15950154
O      -7.95076854     4.33626388   -10.02683225    -0.22202205     0.24925996     0.57479718
O      -7.93013059     4.43833778    -6.03811320     0.10154421     0.05042079     0.52509493
O      -7.98882082     8.61465907    -2.11224065     1.22853580    -0.01126846    -0.14149869
O      -3.91363500     0.07332263    -6.27874118    -0.20249074    -0.08503454     0.64924392
O      -7.65052041     0.02370783    -6.29185681     0.04553682     0.18500930     0.52194594
O     -11.67512712     8.70729090   -10.09024593     0.65696175    -0.05932560     0.04017324
O      -2.11828282     4.35382684    -3.83946216     1.16501275    -0.29251818    -0.72106737
O      -2.03382115     4.24600445    -0.06102747     0.20118679    -0.33122941     0.18530330
O      -5.96460706     4.09672265    -3.96742505     0.25005886    -0.28351870    -0.46046747
O      -5.85858565     4.83011517    -7.85374856    -0.10370392     0.04546812    -0.17627870
O      -1.97330552     0.35048047    -4.05316943    -0.24982993     0.60109392     0.75567344
O      -1.89650604     0.10313582    -8.10407060    -0.16947397    -1.33343575    -0.53903921
O      -5.86271321     0.22847195    -4.11764946     0.23293029     0.96690942    -0.85949432
O      -9.78803224     8.27424289    -8.25599133     0.29249759     0.18020845     1.53279311
