# total energy = -630.39278603 eV

CRYSTAL
PRIMVEC
        0.00279571     0.02951795    -7.98606283
       -7.83802570     0.01298533    -3.99532603
       -3.92160916     8.71933433     0.00634407
PRIMCOORD
56 1
Li     -3.87510905     2.38901223    -1.85847766     0.47934899    -0.10926437    -0.51225698
Li     -3.76949029     2.10284043    -6.06884799    -0.89769336    -0.22790117     0.37576457
Li     -7.75026152     2.36417181   -10.03815700     0.56889846    -0.27723555    -0.29752285
Li     -7.88549967     2.62621740    -6.04674108     0.02331671    -1.45909139     0.92635633
Li     -3.84473952     6.20837750    -1.97510475    -0.13413209     1.18534145     0.34723547
Li     -3.92505589     6.52682243    -5.88602014     0.23001807    -0.05143028     0.68072471
Li     -7.89632341     6.58589029    -9.87004489     0.37000117    -0.15303569    -0.15735091
Li     -7.87159967     6.54325890    -5.75856050    -0.15886094     0.16811845    -0.10857776
Ti     -1.77406701     2.29670129    -4.18315914    -1.99103503    -1.04820711     1.42379040
Ti     -5.84540387     6.76665482    -7.89971532    -0.01497408    -0.70561597    -0.05197953
Ti     -7.90243644     4.49874651    -7.75759197     0.93967875     0.15501961     1.13231086
Ti     -7.86823481     4.37113542    -3.76459730    -0.58381008     0.31667368    -0.13793673
Ti     -3.99953531     4.32333333    -7.63436573     0.97188048     0.08436916     0.25333520
Ti     -4.12332948     4.30385190    -3.78520635     0.43531046     0.04389950    -0.49585229
Ti     -5.99447827     8.67765877    -2.22942525     0.59800247     1.10338300     0.02049384
Ni     -5.96676390     2.38644718    -8.01417230     2.35135955    -0.46597765    -0.14619206
Ni     -5.90725057     2.02955924    -4.20717144     0.66872103     0.26314686     0.91429579
Ni     -9.83613037     6.59241686    -7.84613113     0.30533656     0.33351403     0.12000950
Ni     -9.82016550     6.38842161    -3.84047624     0.12003995     0.75002945    -0.86347330
Ni     -1.88383589     2.13371629    -7.93808350     0.20568666     0.44845403    -1.72224579
Ni     -5.87152249     6.60149387    -3.95395006     0.21938026     0.74213407    -0.25831144
Ni     -1.83751499     0.04260512    -6.10829953    -0.50969207    -1.34989415     1.80196636
Mo     -5.86076001     0.06016233   -10.27020590    -0.75667132     0.38481377    -0.08126869
Mo     -9.93999437     8.72121948    -6.33180727     0.54162508    -0.64357922    -1.73409833
O      -1.92991137     1.90089755    -2.07581017     0.21022769    -0.35810118     0.27149546
O      -1.83067981     1.93354604    -6.09486567    -0.17667827    -1.08668716     0.23649899
O      -5.89037741     6.76334260    -1.90136478     0.21949396    -0.13407491     0.18118212
O      -5.90627434     6.84240406    -5.92697229     0.12651809     0.95233309    -0.45414651
O      -5.66176165     1.97119256   -10.27733319    -1.23149584    -0.01349878     0.39520247
O      -6.03380903     2.07528266    -6.03280821     0.52527064    -1.01592150     0.68629414
O      -9.70988084     6.91000940    -9.70134939    -0.31756374    -0.33782525    -0.16291419
O      -9.83846062     6.74499506    -5.99732969    -0.04323805     0.34120543     0.20546569
O      -3.81169233     2.37810251    -4.06532280    -0.52479506     0.12212269    -0.38765573
O      -3.93186383     2.45409505    -7.97029545     0.33317763    -0.23236027     0.24763284
O      -7.79074563     2.40785010    -4.03501472    -0.20902872    -0.31570169     0.04426083
O      -7.75080270     2.39537430    -7.99051015    -1.66898512     0.58454184    -0.53151803
O      -3.77884751     6.39714887    -3.90260274    -1.03352915    -1.00451833    -0.42545987
O      -3.96072106     6.28741564    -7.76437887    -0.36791113     0.76509848    -1.13014427
O      -7.91131559     6.32909666    -3.80955284    -0.04501463     0.26231686    -0.51964494
O      -7.86898583     6.35430906    -7.90567577     0.51359069     0.37382488     0.00377068
O      -3.76426719     4.48051628    -2.05138920    -0.66483442    -1.57868873     0.08133064
O      -3.94376341     4.42987778    -5.86591532     0.55911499    -0.16144172    -0.49382500
O      -7.92652196     4.23309844    -9.99740256     0.58996699     0.21575164     1.17820822
O      -7.79908506     4.37573482    -5.94534439    -0.51797329     0.77085532    -1.88569160
O      -7.82852184     8.70236465    -2.06711325    -0.13633195    -0.18877332     0.18452121
O      -8.21136458     8.72303991    -5.93104544     1.33333937     0.45400459     0.01442115
O     -11.71308578     8.66469778    -6.07082539    -0.90357098     0.03894378     0.88670135
O     -11.53099318     8.71545019    -9.90618062    -0.18373077     0.43942991    -0.86180043
O      -1.94182810     4.09830375    -4.06735237     0.20650852     0.41281449     0.08259050
O      -9.79498256     4.57730099    -4.03580898    -0.56877939    -0.57321818     0.51552420
O      -5.94693916     4.76941557    -4.07767265     0.46329547    -0.31337240     0.57478322
O      -5.89324249     4.29463708    -7.93583035    -0.56164779     0.50192143    -0.54851298
O      -5.71952467     8.67955568    -4.05508349    -0.62718502     0.22522291    -0.51329354
O      -5.96947491     8.55974654    -7.93621349     0.38118653     0.47165888    -0.31279100
O      -9.80764940     8.30713108    -4.01460338    -0.36283657     0.04738638     0.07368967
O      -5.96328571     0.51118330    -8.14395610     0.60334608     0.85670881     0.94745192
