# total energy = -630.27100640 eV

CRYSTAL
PRIMVEC
        0.00285542     0.02004370    -7.95977623
       -7.82940539     0.00763210    -3.98158109
       -3.91729101     8.74642787     0.01461334
PRIMCOORD
56 1
Li     -3.93656015     2.32336034    -1.89116896     0.00845025     0.02036419    -0.09382055
Li     -4.10435581     2.29812578    -5.79411894     0.67115904    -0.29930926    -1.15407364
Li     -7.85710269     2.26165975    -9.91564856     0.14442286     0.32853278    -0.31854322
Li     -7.79393456     2.41053407    -5.88103685    -0.12340027    -0.56482712    -0.07980479
Li     -4.01666237     6.41041345    -2.00598740     0.83522924     0.05578597     0.13483246
Li     -4.01233140     6.39796243    -5.84275754     0.26840079     0.05831609    -0.03756707
Li     -7.84470439     6.24856884    -9.91119530    -0.40018178     0.56679584    -0.14192887
Li     -7.79306358     6.45215304    -5.83014250    -0.24749208     0.23698295     0.05838319
Ti     -1.93829022     2.32238942    -4.00335232    -0.75794057    -2.09543632    -0.32888116
Ti     -5.92104591     6.85294443    -8.01158109     0.09644974     1.25204521     1.63937957
Ti     -7.70057270     4.39022257    -7.71117375     0.02544560     0.95193608     1.07616166
Ti     -7.74876884     4.35729213    -3.78965067    -0.16461620     0.45096231     0.13556667
Ti     -3.82511838     4.35345987    -7.64341418     0.38925320    -0.49097209    -0.27300911
Ti     -3.97829126     4.30304985    -3.80230805     0.27764579     0.70434874    -0.91851404
Ti     -2.22776259     0.05576744    -2.13629278    -0.36917120    -1.51179106     0.08337059
Ni     -5.83863184     2.27715776    -8.03224234    -0.27091429     3.00948066     0.31840289
Ni     -5.87795553     2.07230852    -3.97042615    -0.33510232    -0.09689916    -0.53278169
Ni     -9.74469165     6.66520344    -8.00617107    -1.54562863    -0.53476887     2.47096169
Ni     -9.79504551     6.46462950    -4.00015344     0.35694123    -2.38718199    -0.17314584
Ni     -1.91642235     2.21734195    -7.87697635    -0.52104739    -0.43240359    -0.69369806
Ni     -5.78357933     6.54464174    -3.90370011    -1.08487877     0.55935688    -0.71295495
Ni     -2.02330001     0.05204888    -5.95342808    -0.09464380     0.15778315     0.68867097
Mo     -6.02539150     0.06029698   -10.17093252     1.89612085    -0.62050777    -1.80541428
Mo     -9.77548554     8.72736035    -6.40229701    -1.40255400    -1.80630046     1.41431964
O      -2.07903217     1.83535451    -1.97618850     1.20727692     3.02129775     0.15014614
O      -1.97796481     1.93474316    -5.99132297     0.14394054    -0.69408797     0.48227083
O      -5.90128030     6.83509360    -1.90217979     0.16568602    -0.88652534    -0.59076903
O      -5.87036556     6.96760720    -5.82452992    -0.35399836    -0.15116639    -0.71644227
O      -5.84207992     2.05250635   -10.10531100    -0.27935831    -0.39225969     0.77190291
O      -5.90570033     1.81725092    -5.89246883    -0.08489813     1.59262147     0.79482334
O      -9.81164898     6.87201675    -9.76546696     0.13438021     0.09523687    -1.09530383
O      -9.83334179     6.81798530    -6.06960207     0.70752372    -0.35801721     0.07837110
O      -3.93610127     2.32368082    -4.00671518    -0.04336489     0.08402997     0.76511973
O      -3.89866621     2.40074912    -7.93164511     0.24091001     0.42412925     0.16212771
O      -7.79615554     2.40036392    -4.01007536     0.00879492    -0.24642040     0.53829544
O      -7.87016258     2.56161925    -7.90711544     1.44398260    -2.83248592    -0.53544833
O      -3.89692953     6.27335477    -3.95106387     0.89171079     0.94159820    -0.30714550
O      -4.10851628     6.28805491    -7.78879326     0.80739470     0.26538224    -0.89513808
O      -7.77458060     6.36241070    -3.90898642    -0.15378385    -0.67649643    -0.06341800
O      -7.85863012     6.32544201    -7.90431449     0.90984352     0.35361403    -0.24141184
O      -3.77303668     4.38778243    -2.11027596     0.05094830    -0.18716477     2.58810431
O      -3.76085013     4.31483116    -5.88699214    -0.31007546     0.14214879    -0.19140717
O      -7.92605076     4.36970306    -9.98328449     0.31156264    -0.20325193     0.66113554
O      -7.95659391     4.34090218    -5.91862476     0.60961184     0.52265411    -0.99521953
O      -7.94519169     8.76508152    -9.78057587    -0.34519120     0.25741029    -0.76113237
O      -4.07124192     0.01471278    -5.96885173     0.08615417    -0.20581444    -0.61602783
O     -11.59243622     8.70037146    -6.03130663     0.60076298    -0.07743070     0.13402477
O      -7.75507262     0.07780952   -10.07410454    -1.55807450     0.29209578     0.04910524
O      -1.88159977     4.08908988    -4.01172862    -0.92485340     1.35563062    -0.08926961
O      -9.75343387     4.36990370    -3.98596095    -0.53227814     1.09518834    -0.23042913
O      -5.81483991     4.55635131    -3.96673366    -1.32530488     0.04965463    -0.38029444
O      -5.79318449     4.23629976    -7.96231435    -0.61855980    -0.11827125    -0.00023502
O      -1.92279125     0.19830653    -3.94760906     0.03459112    -0.04594681    -1.17825838
O      -5.92136443     8.71531649    -8.04278932     0.47983612    -1.49249772     1.08348578
O      -9.67164279     8.20785750    -3.92322390    -0.45663072     1.96003619     0.18437968
O      -6.06160594     0.57321539    -8.15077686     0.53235577    -1.56144020    -0.39780399
