# total energy = -630.44706330 eV

CRYSTAL
PRIMVEC
        0.00279571     0.02951795    -7.98606283
       -7.83802570     0.01298533    -3.99532603
       -3.92160916     8.71933433     0.00634407
PRIMCOORD
56 1
Li     -3.84486688     2.31461470    -1.96910333    -0.26561936    -0.18134214     0.11952319
Li     -4.01277782     2.11270739    -6.02067474     0.31615887     0.08246307     0.14546251
Li     -7.81647339     2.21648266   -10.00385426     0.03303316     0.43780718    -0.37130029
Li     -7.63670904     2.30433225    -5.90611189    -0.73056359    -0.13106518     0.05953036
Li     -3.88217875     6.60204678    -1.90915060     0.03581276    -0.25993674    -0.52067759
Li     -3.95054267     6.29334162    -5.76469844     0.28290473    -0.12294405    -0.44021014
Li     -7.88550518     6.50567232    -9.78613041    -0.14911786    -0.13840181    -0.43423796
Li     -7.69581694     6.53478740    -5.93086726    -0.07295788    -0.05071516     0.56078119
Ti     -2.01952563     2.25946996    -4.14435602     0.57428810     0.95049806     0.67301891
Ti     -5.72087893     6.45762762    -7.98233133    -1.91461093     1.15873869    -0.17513739
Ti     -7.89755940     4.37520126    -7.58327451    -0.31603713     0.48681081    -1.35801904
Ti     -7.90922505     4.45893090    -3.72423007    -0.02310308     0.04950775     0.13947685
Ti     -3.83560067     4.12568945    -7.78791277     0.48197740     1.11844903     2.04442590
Ti     -4.10341000     4.42943974    -3.74581512     0.48183865     0.51664224     0.40514051
Ti     -2.18836037     0.06307865    -2.05276790    -0.41476771    -0.90511894     1.31872366
Ni     -5.95128106     2.44138292    -8.13203358     1.01687679    -0.97643069     0.17068429
Ni     -5.83956172     2.23750334    -3.97200588    -0.72752751    -0.50558597    -0.01463688
Ni     -9.71877160     6.60674968    -7.82684568    -0.97581111    -0.41205892    -1.53499949
Ni     -9.86818870     6.49115573    -3.99263026     0.84369670    -0.99629406    -0.31275451
Ni     -1.88778176     1.97352908    -8.03681011     0.87076593     0.48254215     0.40837790
Ni     -5.88995448     6.89005349    -3.95108075     0.21191282    -2.88744049    -0.08277168
Ni     -5.94883198     8.68644617    -6.00665626     0.93345598    -0.32445667    -0.55575967
Mo     -6.04422803     0.03882726   -10.31673338    -0.85505258     0.33206228     1.70891801
Mo     -9.73356149     8.68465052    -6.36729348    -0.94814462     0.21410453    -1.56639837
O      -1.84457547     1.95185819    -2.09876228    -0.15773710    -0.40291986     0.62575593
O      -1.85555648     1.82570344    -6.01262387    -1.32762298    -0.17719185    -0.46463625
O      -5.94814894     6.75322051    -1.99309323     0.38232425     0.81119764     0.24137599
O      -5.79290865     6.86271577    -5.90380998    -0.69461324     0.32690852    -0.33499105
O      -5.82391686     2.02969182   -10.13491407    -0.56259431    -0.44994465    -0.03823598
O      -5.85699301     1.78653957    -5.80059939     0.03299004     0.96748113    -0.13494840
O      -9.86914154     6.91047163    -9.73055463     0.55851422     0.94629795     0.13287859
O      -9.56741989     6.76504493    -6.03674396    -1.23455039     0.13627878     0.95449862
O      -3.94848864     2.39983434    -3.92932516     0.47576101    -0.12868573    -0.75466982
O      -3.74855486     2.25773792    -7.97007391    -0.70606586     0.55262328    -0.24296663
O      -7.80446225     2.45380670    -4.00979137     0.26875228    -0.26248403     0.11683243
O      -7.85382806     2.50257905    -8.12170414    -0.10544199    -0.48213899     1.07062881
O      -3.76104663     6.36823866    -3.92218542     0.41310330    -0.04832090     0.84965122
O      -3.94753970     6.21914612    -7.92192689     1.30254139     0.85486852    -0.38292905
O      -7.97415969     6.40849937    -3.90581903    -0.10006360     0.05735446     0.03679889
O      -7.85143164     6.28020073    -7.84714967     0.69378843     0.11235752    -0.65608866
O      -4.07205042     4.29267574    -1.94154714     0.22936333     0.02825540    -0.54624565
O      -3.82817329     4.31950699    -5.92102169    -0.21909536    -0.58443908    -1.61156801
O      -7.93957504     4.31616047    -9.96000888     0.45573390     0.53125348    -0.47049557
O      -7.78964625     4.38643195    -5.85964091     0.00666248    -0.46050179     0.08017543
O      -4.00487077     0.15096293    -9.98285205     0.37784766    -0.39994982    -0.30693448
O      -3.97704467     0.06289484    -6.18344821     0.84636439    -0.47463745     0.48366813
O     -11.55208710     8.56448765    -6.17417308     0.57886310     0.19687107     0.59684073
O      -7.86685960     0.11293069   -10.14108407     1.81336070    -0.14831510    -0.17834448
O      -1.98407812     4.20103775    -4.04978932     0.05246787    -1.33293492     0.67857527
O      -9.89037883     4.57706634    -4.17040344     1.45911210     0.53845804     0.56219003
O      -5.87392824     4.92431248    -4.05383215    -1.07571398     0.40886171     0.19995105
O      -5.81415016     4.41405691    -7.80550633    -1.15493050    -0.65154306    -0.79527401
O      -1.95280008     0.05403147    -3.92850746    -0.16845885     0.62062319    -0.60239263
O      -5.84560594     8.35083577    -8.02173566     0.04386665     0.53191379    -0.48107887
O      -9.68087919     8.36694298    -4.05202541    -0.49952496    -0.13959011    -0.71603965
O      -5.84573900     0.55721047    -8.23875343    -0.55250912     0.39076141     1.64734834
