# total energy = -630.35966846 eV

CRYSTAL
PRIMVEC
        0.00285542     0.02004370    -7.95977623
       -7.82940539     0.00763210    -3.98158109
       -3.91729101     8.74642787     0.01461334
PRIMCOORD
56 1
Li     -3.92250773     2.12463946    -1.90996683     0.05531051     0.32971948    -0.08046821
Li     -3.91009963     2.04083271    -5.95903034     0.08679352    -0.02654832    -0.22426822
Li     -7.84906394     2.21228544    -9.98197776    -0.53382895     0.27697102    -0.20595804
Li     -7.81141215     2.13422218    -5.91813678     0.20620170     0.28339426    -0.01876173
Li     -3.87010546     6.71458177    -1.95078927    -0.48330444    -0.43095259     0.04142218
Li     -3.77801752     6.48009722    -5.95463171    -0.29255174    -0.10011123     0.15868723
Li     -7.82641315     6.55116597    -9.93183897    -0.29880219    -0.12644018    -0.36762438
Li     -7.77542973     6.30624449    -5.99378406    -0.25567378     0.33403293     0.60104137
Ti     -2.01341343     2.14094223    -4.05015325     0.73722958     0.25547088     0.18112189
Ti     -5.90361347     6.53059448    -7.98497423     1.92704870    -0.34228833     0.30157670
Ti     -7.85908785     4.34645765    -7.79315546    -0.44168303    -0.73570327    -0.87789794
Ti     -7.81736606     4.40214892    -3.77386946     0.40786262     1.00465709    -0.41084798
Ti     -3.84438582     4.34162817    -7.75631094     0.01443187    -0.21937900    -1.20611717
Ti     -3.97232527     4.39721473    -3.73883062     1.07618044     0.43825520     1.40727400
Ti     -2.18164855     0.03288938    -1.90500555     0.10973387    -0.53919288    -0.83831897
Ni     -5.86651285     2.34815450    -8.03535448    -0.25242364     0.86822547     0.69556238
Ni     -5.94912360     2.28335773    -3.92798461     1.96993118    -0.65459705    -0.80735788
Ni     -9.74996831     6.67471702    -7.83535948    -0.42269669     0.17130506    -0.08193194
Ni     -9.84202220     6.49881288    -4.10586116     1.13259922    -1.68823315     0.77911612
Ni     -1.93286741     2.24434018    -8.00107079     0.07676497    -0.09618924     0.38697467
Ni     -5.69189479     6.63150009    -3.93995662    -1.53929118     0.56118869    -0.76231962
Ni     -5.93151488     8.55928172    -5.92006560    -0.67382668     0.87818447    -0.41992935
Mo     -6.04860642     0.10861510   -10.22880283     1.42671201    -2.21847429    -0.00564179
Mo     -5.88112576     0.01869036    -6.24091665     1.26641193     0.38872108    -0.66714489
O      -1.88517017     1.89845538    -2.03524531    -0.23752617     0.25948921     0.11275635
O      -2.00900941     1.70125857    -5.86949150    -0.07797230    -0.49620103    -1.79369436
O      -5.85583017     6.82495024    -1.91545442    -0.06227224    -0.31000154    -1.43611468
O      -5.94048547     6.73390494    -6.00672027     0.87991420     0.48812996     0.56951260
O      -5.93592750     1.91114854    -9.98745014     0.48724253     2.98153825    -0.43594988
O      -5.76037066     1.99935468    -5.83348144    -1.10786199    -0.83510704    -0.03965767
O      -9.72247833     7.06522581    -9.67222616     0.40641397    -0.75944327     0.24191823
O      -9.82832779     6.84294408    -5.95384313     0.48675563    -0.59638801    -0.95576974
O      -3.96877085     2.45475732    -4.01413553    -0.53602795    -0.11660529     0.81452721
O      -3.91696654     2.36298534    -7.96317624     0.63044800     1.12249663     0.14180119
O      -7.73252908     2.42943257    -3.96607759    -1.59886058    -0.21181044    -0.16054000
O      -7.97451002     2.38793933    -8.15876586     2.08359629    -0.52740760     1.32303950
O      -3.79294550     6.42936705    -3.98516392     0.86677595    -0.23929230     0.23499235
O      -3.91781918     6.39287924    -7.94627200    -0.22494659    -0.44169833     0.10022309
O      -7.93459740     6.35412734    -4.09845979     0.13121709    -0.47844877     0.87190307
O      -7.76664852     6.31054656    -7.97728126    -1.80315971     0.05890100     0.31988065
O      -3.83480601     4.51766179    -1.92076923    -0.07987017    -0.36686913    -1.91089124
O      -3.72076746     4.51927149    -6.04833416     0.01054532    -0.05300859     1.42049052
O      -7.78927640     4.32892901    -9.98517223     0.33193316     0.28927220     0.23195201
O      -7.79373194     4.21783986    -6.07573973     0.01477492     0.16139875     1.34308565
O      -3.95655582     0.20875584    -9.86618733    -0.31862481    -0.45517925    -0.53190753
O      -7.90755266     8.62923868    -5.90077414    -1.58775781     0.49408873    -0.72153488
O      -7.68931851     0.01519405    -5.84289122     1.11418628     0.32987223    -0.83356747
O     -11.66435607     8.72878444    -9.99343392    -1.86707562     0.18385109    -0.08262371
O      -1.90156846     4.03311315    -4.05017972    -2.03643455     0.46634875    -0.05876859
O      -9.67496843     4.42765536    -4.03428685    -1.52016862     0.36608319    -0.38920424
O      -5.74499521     4.75379970    -4.13473562    -1.26174466    -0.03837046     0.50462805
O      -5.91860864     4.39902607    -7.98818001     1.63376386    -0.36161891    -0.19580284
O      -5.86524557     8.66096890    -4.00896897     0.37175571    -0.21793944     1.18912687
O      -5.90098592     8.40985690    -8.02736648     0.09284779     0.73451607     1.84976149
O      -9.76426128     8.37253599    -3.97014389     0.10448661     0.22768262    -0.57289929
O      -5.80323417     0.59005615    -8.06219824    -0.60919741    -1.44720018     1.28412014
