# total energy = -630.89475359 eV

CRYSTAL
PRIMVEC
        0.00279571     0.02951795    -7.98606283
       -7.83802570     0.01298533    -3.99532603
       -3.92160916     8.71933433     0.00634407
PRIMCOORD
56 1
Li     -3.99854506     2.10965968    -1.82481194     0.11512489     0.35887459    -0.26356450
Li     -3.81622304     1.97183261    -5.93303569    -0.23801651     0.77654654    -0.18430123
Li     -7.81464493     2.43794796    -9.79511125     0.59244653     0.00638052    -0.74719144
Li     -7.77811734     2.42720421    -5.82029111    -0.26835391    -0.30201297    -0.44620035
Li     -3.99167024     6.42107141    -2.15822421     0.49715443     0.31591173     1.35687072
Li     -3.81462835     6.44459692    -5.85719049    -0.44804925     0.05258295    -0.06380936
Li     -7.80832135     6.63315710    -9.92760624     0.13098005    -0.43203840    -0.06986379
Li     -7.94777609     6.37413786    -5.96142568     0.84428435     0.53868984     0.32357345
Ti     -1.96226850     2.21949942    -3.95853987     1.51911866     0.02624402    -0.65540416
Ti     -5.71625486     6.65186060    -8.02181910    -1.55693607     0.11286740     0.30646008
Ti     -7.83155656     4.44612809    -7.66825167     0.12979549    -0.36025799    -2.47378524
Ti     -8.00170142     4.40529638    -3.67277049     1.16061482     0.75377538     0.70036718
Ti     -3.91790496     4.34628111    -7.71982516    -0.45763398    -0.96960570    -1.69066367
Ti     -4.11495867     4.36926554    -3.70091100     0.11607620    -0.88204561    -0.66181833
Ti     -2.16593540     0.08999831    -2.03977687     1.50123406    -0.35168464    -0.02951193
Ni     -5.86942438     2.24995177    -7.95057886    -0.89965851    -0.53242782     0.56090635
Ni     -5.91365196     2.17580939    -4.08416743     0.44818830     1.16204845     0.28278208
Ni     -9.81256270     6.34044472    -7.99284153     0.62305547    -0.64302766    -0.23488894
Ni     -9.77465114     6.61984269    -4.03191055     0.38548837     0.25632953    -0.66639438
Ni     -1.93374484     2.19135263    -7.95590624     0.11049976    -0.69427233     0.09911516
Ni     -5.83812324     6.69449213    -4.00206287    -1.13941736     0.04638663    -0.48239059
Ni     -1.96578195     0.05061724    -6.00205625    -0.11482625     0.58412113     0.33733865
Mo     -9.87765401     8.63155402   -10.31869217     0.70715270     0.50336448    -0.49967586
Mo     -5.93166463     0.06021853    -6.38320373     0.94787747     0.98661230     0.38218507
O      -1.96745340     1.96050892    -2.06198339     0.05453168     0.65334517     1.28243069
O      -1.74066695     1.91646393    -5.86823528    -1.45625902    -0.67855207    -1.67222959
O      -5.86469447     6.91360219    -2.05205780     0.37982190    -1.05885777     0.08756518
O      -5.95178036     6.93799824    -5.98290912     0.49839604    -0.04639269    -0.05458354
O      -5.87524200     1.74397802    -9.80919031     0.15256043     0.58451349     0.28848868
O      -5.88624504     2.03654235    -6.06855940     0.00266646    -0.10325230     0.15655287
O      -9.74209326     6.70372537   -10.14804052    -0.27194224     0.11123854     0.38966311
O      -9.71212368     6.88770497    -5.93628083    -1.11845780    -0.80314066     0.81811830
O      -3.75318733     2.46533282    -4.00463042    -2.75606345    -0.38159676    -0.27777983
O      -4.04966067     2.35175875    -7.91162468     0.98370484     1.03150588     0.05889908
O      -7.82100078     2.47615484    -3.92945248    -0.26664834    -0.81470451    -0.01799771
O      -7.86805938     2.43678383    -7.96215130     1.67961615     0.71415474     0.79437400
O      -3.96988274     6.27975817    -3.92182710     0.43364894     0.42084212    -0.94983984
O      -3.90602883     6.44798602    -8.09643433     1.30730700    -0.29349778     0.54809257
O      -7.81756230     6.39515134    -3.99267426    -0.11185786    -0.75349586     0.18160152
O      -7.81483984     6.34174680    -7.97181534    -0.51176904     0.25228632     0.15434727
O      -4.03696505     4.32269335    -1.96309457     0.30665735     0.36401247     0.41737379
O      -3.92049876     4.54493140    -6.02594409     0.08196506     0.08133539     1.58374136
O      -7.67837180     4.49961863    -9.89208321    -0.78228885    -0.42725381    -1.45369895
O      -7.84566312     4.41176342    -5.95357110     0.30182429     0.00839197     1.66894656
O      -7.84086686     8.70690502    -9.94817651    -2.01310105     0.09269526    -0.06898423
O      -4.06483240     0.21533625    -6.09337447    -0.10570388    -0.76393074    -0.31384912
O      -7.70371485     0.14533852    -5.97267030     0.86388153    -0.24430803    -0.58910691
O     -11.59032664     8.67977925   -10.10183857    -0.98647321    -0.62460139    -0.02931039
O      -1.95353514     4.31360981    -3.99400222    -0.01274649     0.87796858     0.13026766
O      -2.03339562     4.07870609    -8.05989868     0.97897639     0.06143238     0.42875271
O      -5.93265542     4.01871061    -4.00106467    -0.44948535     0.30853193    -0.22854500
O      -5.83799552     4.70398627    -8.03391285    -0.07831014     0.43424442     0.51311947
O      -1.97112355     0.25071673    -4.00441110     0.14793873     0.06681444     0.03154428
O      -5.74096493     8.72612510    -8.08026833    -0.21936832    -0.24928998     0.92420248
O      -5.66386381     0.29990503    -4.13751235    -0.95900869     0.05759676     1.25539388
O      -9.76177597     8.13903929    -8.09229989    -0.56333070     0.40242044    -1.13259104
