# total energy = -630.47191368 eV

CRYSTAL
PRIMVEC
        0.00279571     0.02951795    -7.98606283
       -7.83802570     0.01298533    -3.99532603
       -3.92160916     8.71933433     0.00634407
PRIMCOORD
56 1
Li     -3.89490801     2.15850515    -1.93139012    -0.45806636     0.22328567     0.10362602
Li     -3.99542691     2.30855545    -6.06874652     0.97147928     0.57385723     0.25023906
Li     -7.96414321     2.51043136    -9.99333108     0.53443248    -0.14997697     0.25120093
Li     -7.83423376     2.23520219    -5.77565942     0.16526891     0.01619594    -0.56424908
Li     -3.89216119     6.79615151    -2.10041917     0.11219143    -0.02643537     0.32875528
Li     -3.89120829     6.23658727    -5.85792163    -0.29499847     0.20344573    -0.19746673
Li     -7.97949935     6.53028339   -10.02085762     0.24234639    -0.00532318    -0.14584831
Li     -7.66690724     6.72202406    -5.85561984    -1.10458987    -0.13863842    -0.32995265
Ti     -1.90040595     2.18590525    -4.00477137    -0.49352212     0.92970667    -0.08879604
Ti     -5.85399444     6.67576755    -8.07786610     0.45719064     0.62661429     0.86619296
Ti     -7.81475382     4.55403179    -7.62133656     0.71543753    -2.59532402    -1.28858358
Ti     -7.74042498     4.45874963    -3.70413329    -0.80429108     0.07839593    -1.00618888
Ti     -3.82836905     4.51923786    -7.88981057     0.22916160    -1.42514635     2.04471716
Ti     -4.04867527     4.33242869    -3.64323466     0.17188252    -0.53788417    -0.12971078
Ti     -2.22760877     0.05188578    -2.09463107     0.22000588     0.21489721     1.77597724
Ni     -5.86041311     2.27891513    -8.03590826     0.83819542    -0.13742690     0.86190872
Ni     -5.93270330     2.08794049    -3.93634600     0.45777449     0.16564123    -0.09078104
Ni     -9.76030478     6.22042319    -8.01181913    -1.41317470     1.08654233     0.01524468
Ni     -9.82712981     6.57997098    -4.14210126     1.18252847    -0.40591170     1.90810808
Ni     -1.93671883     2.33385539    -7.89727839    -0.82404464    -0.71727086    -0.33641729
Ni     -5.82244898     6.52302223    -3.99162192    -0.80888014     0.66904346    -0.50158463
Ni     -1.98981200     0.06273982    -5.94696909     0.29023048     0.30878793    -0.60235292
Mo     -9.96870624     8.65802907   -10.12021775    -1.34744733     0.16324544    -1.02288590
Mo     -5.81025864     0.14884657    -6.48689833    -0.74915864    -1.10354795    -0.22389071
O      -1.95850303     2.02488790    -1.97767505     0.17524061    -0.75637671    -0.39984972
O      -1.98221389     1.92459352    -5.97271167     0.06987127     0.09631765     0.13174269
O      -5.92259384     6.82561969    -2.05274565     0.59820098     0.21965178     0.19151420
O      -5.88152328     6.96615647    -5.94494954     0.78254151    -0.55444277    -0.17677076
O      -5.93825928     1.81831992    -9.86297467     0.45517707     0.75054059     0.06684481
O      -5.74110747     1.98992274    -6.07586027    -1.67817964    -0.19447689    -0.12072204
O      -9.87250564     6.69652685   -10.10063035     0.54562631    -0.27671476    -0.91399928
O      -9.85343281     6.80169444    -5.90455520     0.70397300    -0.09050662    -1.72483178
O      -3.96869687     2.31062574    -4.02647008     1.25635995     0.43039660     0.74855538
O      -3.93549235     2.47208919    -8.03752080    -0.13669576    -0.06352081     0.02267626
O      -7.88498536     2.37323255    -3.92272948     0.35344182     0.65412249     0.19188210
O      -7.73331114     2.55080035    -8.01649260    -1.27881233    -0.14417364     0.33184503
O      -3.95271906     6.23180275    -3.90341502     0.34737453    -0.40779471    -0.57120754
O      -3.82434144     6.47290603    -7.94663728    -1.88154312    -0.00298393    -0.81763964
O      -7.72500719     6.39700348    -4.08219261    -0.25034695    -0.48934488     1.29312182
O      -7.85974376     6.33730025    -8.08879065     0.16562363     1.75193935     0.55122351
O      -4.03410123     4.31489869    -1.87695209    -0.05211984    -0.24972285    -1.18926776
O      -4.02530410     4.31262567    -6.10910583    -0.13585805     0.31771937     0.00353862
O      -7.94872701     4.55973909    -9.96689257     0.37453683    -0.58159685     0.39219779
O      -7.69666773     4.50187679    -5.91729061    -0.30917954    -0.35223068     0.98468361
O      -7.93409160     8.71485152    -9.97433945     0.34997142     0.32291120    -0.16964495
O      -7.97486807     8.65173697    -6.12183197     0.29427531     0.43885106     0.09873151
O      -7.59414207     0.04680644    -6.14892386    -0.15226063     0.48608162     0.27922381
O     -11.72677079     8.73167140   -10.02245045     0.05369641     0.10416804    -0.04306560
O      -2.01847194     4.29301011    -3.93315573     0.33284031    -0.09978914     0.06336724
O      -9.75348678     4.43943947   -11.89611254     0.20759532     0.04999387    -1.07695075
O      -5.90820880     3.93305467    -3.87945227     0.39550149     0.37960918    -0.23233998
O      -5.88505366     4.77000534    -8.03437070    -0.04681664     0.21290117     0.08597664
O      -1.88742691     0.30399542    -3.93418852    -0.03273033     0.18311979    -0.72278314
O      -5.89100251     8.66415724    -7.98331966     0.02275062    -1.06941429    -0.96863347
O      -9.73321618     8.47598443    -3.98846518    -0.36683305     0.93009538     0.31858291
O      -9.87688306     8.02659699    -8.22788909     0.66123782     0.91211649     1.74635787
