# total energy = -630.48297841 eV

CRYSTAL
PRIMVEC
        0.00285542     0.02004370    -7.95977623
       -7.82940539     0.00763210    -3.98158109
       -3.91729101     8.74642787     0.01461334
PRIMCOORD
56 1
Li     -3.91894443     2.41066339    -1.94936560    -0.39102483    -0.15951650     0.32062754
Li     -4.04960661     2.41962631    -6.03411189     0.28846584    -0.18202958     0.29330947
Li     -7.72506045     2.57523956    -9.78292531    -0.19067626    -0.17501371    -1.06097935
Li     -7.90549369     2.24509574    -5.94686112     0.59386399     0.03364348     0.06272244
Li     -3.79640830     6.53627585    -2.00223691    -0.24484022    -0.13285223     0.02251677
Li     -3.91641409     6.32199974    -5.88620962    -0.34112521     0.28523286     0.32828678
Li     -7.92668588     6.43232398    -9.97443976     0.03371419     0.02026032     0.23943955
Li     -7.82488397     6.82200681    -5.69997065     0.07185392    -0.42052211    -1.03879430
Ti     -2.03310224     2.12712679    -3.94902015     0.48154711     0.37215661    -1.20804926
Ti     -5.69646414     6.53768762    -8.06731648    -1.40136856     0.39240519     0.39018747
Ti     -7.85611952     4.42241897    -7.69886984     0.66427742    -0.32002728     1.12947443
Ti     -7.72483523     4.38319187    -3.86192792    -0.27296913     0.02528712     0.57513385
Ti     -3.64185573     4.42748627    -7.80466572    -1.82389807    -1.18918378     1.21680013
Ti     -3.97140422     4.41045360    -3.75712478     0.37378790    -1.24713050    -0.65985356
Ti     -2.23289765     0.07081563    -2.01384155    -0.91319000    -1.35316957     0.78027630
Ni     -5.81460172     2.31079309    -7.95228993    -0.41176884     0.88160446    -1.38088995
Ni     -5.96164221     2.10142663    -4.15065020     0.36187758     0.11237958     1.19016477
Ni     -9.73846429     6.64130217    -7.90107738    -0.94011211    -0.13192164     0.78230172
Ni     -9.75998186     6.67937224    -3.94898390    -0.08676162    -0.30970998    -0.22570594
Ni     -1.86959411     2.10729390    -7.85700750    -1.50954326    -0.52509391    -0.30075369
Ni     -5.85673718     6.59455166    -3.89488084    -0.50924068     0.29197689    -0.77948895
Ni     -5.89830717     8.71589076    -5.89438555    -1.07951943    -1.32535011    -0.11801888
Mo     -6.10727552     0.04648773   -10.24378577     0.47357255     0.47420420     0.91733745
Mo     -9.80700232     8.66968839    -6.32238988     2.04871775     0.04836346    -0.57797481
O      -1.91576072     1.91228183    -1.91861129    -0.20102335     0.37427377     0.18161067
O      -2.08891836     1.79693350    -5.93491341     0.47330560     0.59326555    -0.20967158
O      -5.76866148     6.84666910    -2.01565103    -0.47978187    -0.55921085     0.38418173
O      -5.96129129     6.78734962    -5.77990842     1.07596370     1.01640256    -0.31193040
O      -5.90221879     2.00189887   -10.06415842     0.00990162    -0.82640484     0.51278175
O      -5.93557059     1.95783755    -6.09264744     0.71518596     0.53866929     1.43033274
O      -9.89682752     6.93772976    -9.70523822     0.56318245     0.34991888    -0.70392809
O      -9.75539090     6.78162990    -6.03309837    -0.16312180    -0.63554404     0.28984550
O      -3.91073495     2.31753169    -3.81542651     0.20722409     0.30750209    -1.41069881
O      -3.89861604     2.49486300    -8.00944529     0.48290898     0.28886181     0.56024505
O      -7.90562017     2.34136178    -3.86003892     0.39006701     0.60360756    -0.40902532
O      -7.80718951     2.47873539    -7.98231542     0.41431928    -0.71251757     0.09837421
O      -3.96642963     6.27957561    -3.90691793     0.63773497     1.16962944    -0.44146773
O      -3.82255662     6.49469927    -7.92669561    -0.26474662    -0.15641918    -0.12944652
O      -7.93021471     6.33270485    -3.99224953     1.41594698     0.26038040     1.00429126
O      -7.88855929     6.29968460    -7.85489898     0.49207105     0.86326814    -0.74472707
O      -3.94445116     4.43479462    -2.01393390    -0.23555675     0.18856357     1.21294155
O      -3.93079322     4.46068526    -5.99178498     0.56391316    -0.54672614    -0.51628353
O      -7.74819880     4.46506126   -10.02016802    -0.66106000    -0.05173973     0.19218181
O      -7.92629309     4.18106306    -5.95097276     0.54238219     0.29585300     0.05564956
O      -7.96102573     8.74494731    -2.12788989     0.46857543    -0.26406671     0.35227813
O      -7.95822144     8.64452976    -5.87655946    -0.27179564     0.85294222    -0.56618108
O      -7.59084418     0.02030953    -5.93700534    -1.29475407    -0.43647118    -0.07127378
O      -0.04545396     0.04765988    -6.26019761     0.46680163    -0.26836095     0.72236879
O      -1.94409731     4.06482184    -3.87990005    -1.05534577    -0.06938041    -0.74112494
O      -9.74132586     4.67562167    -4.15156931     1.24664250     0.28334004     0.51460295
O      -5.88739468     3.93451778    -3.92919204     0.62753277     0.64801544    -1.02167502
O      -5.77065624     4.57581631    -7.86929419    -0.91332152     0.43952540    -0.67623581
O      -1.81400292     0.14636008    -3.89968038    -0.01719637     0.77411728    -0.07721063
O      -5.96605750     8.47013633    -8.01893743     0.21033789    -0.63472861     0.26811313
O      -5.81266515     0.15712806    -4.08332530    -0.36637548    -0.10372871    -0.11126146
O      -5.81086555     0.49377175    -8.11383820    -0.32400434    -0.28613839    -0.48819617
