# total energy = -630.46840321 eV

CRYSTAL
PRIMVEC
        0.00279571     0.02951795    -7.98606283
       -7.83802570     0.01298533    -3.99532603
       -3.92160916     8.71933433     0.00634407
PRIMCOORD
56 1
Li     -3.96758823     2.41377842    -1.86713433    -0.02526634     0.07260718    -0.04707213
Li     -3.99566862     2.32300839    -5.93645184     0.50606213     0.58506200    -0.42441804
Li     -7.86857876     2.05896920   -10.00738067    -0.38416164    -0.12029204     0.24367748
Li     -7.79534811     2.22671099    -5.96518803    -0.12446282     0.30828344     0.24054260
Li     -3.84504341     6.49278721    -1.76337416    -0.40911011     0.06947262    -0.95170041
Li     -3.75907628     6.68715707    -6.00355618    -0.73110587    -0.19116199     0.53423622
Li     -7.87072912     6.50262945    -9.86557320     0.16819180    -0.09157789    -0.41680915
Li     -7.76925713     6.26332933    -5.89430103    -0.42883863    -0.19064892     0.19407911
Ti     -2.10965469     2.19776000    -3.98845809     0.06455953     1.34148326    -1.18778188
Ti     -6.01188545     6.59566441    -7.88432931     1.13088913     1.84812532    -0.56867599
Ti     -7.87253448     4.24794385    -7.90839997    -0.34830440     0.92610767     1.44710861
Ti     -7.90787254     4.32355514    -3.65428810    -1.39868213    -1.49707906    -0.37000233
Ti     -3.84006876     4.45805986    -7.75554273    -0.93417024    -0.88993663     0.69076943
Ti     -4.19517232     4.45582762    -3.76133623     1.58984918     0.93068107     0.81195765
Ti     -1.77072196     0.03630243    -2.10633122     1.12190232    -1.88503118     0.95185958
Ni     -5.89471500     2.09012238    -7.99223160     0.60427587     0.03114991     0.56632942
Ni     -5.92285681     2.34693305    -3.94584407    -0.58064010    -1.69259909    -0.62990042
Ni     -9.84148766     6.49001681    -8.05611035    -0.01339718    -0.35074490     0.52716739
Ni     -9.82412143     6.49234755    -3.96093157     0.68639263     0.27774248     1.12981022
Ni     -2.03752736     2.09953923    -8.06445023    -0.02133824     0.41771871     1.52255652
Ni     -5.93415858     6.67331676    -3.91983007     0.47110248    -0.42994635     0.38134459
Ni     -5.81679478     8.67744875    -5.98009642    -0.14644390     1.89774685    -0.36179557
Mo     -5.83810458     0.13254262   -10.40025919    -3.04919375    -0.98660398     0.98415579
Mo     -5.61897724     0.06605692    -6.26589782    -0.29313268    -1.26895589     0.82821874
O      -2.03332485     1.93637047    -2.03134795     0.04839873     0.18236366     0.00042438
O      -2.14105740     1.84424627    -6.04138998     1.40029832    -0.33810477     0.04220750
O      -5.94968883     6.77504984    -1.91771752     0.01078941     1.06435944    -1.36334578
O      -5.78760112     6.86561320    -5.84149260    -0.50646915    -0.35720516    -0.29870171
O      -5.91308204     2.00856414    -9.81384817    -0.14228617    -0.14751355    -0.29885757
O      -5.82185259     1.96219926    -6.11022913    -0.82601954    -0.17570644     0.06076227
O      -9.72615200     6.89509293   -10.03181704    -0.65712554    -0.27987132    -0.57218118
O      -9.84847438     6.92549439    -5.72816677     1.04386114     0.47379670    -0.74509014
O      -3.99276645     2.43596149    -3.99316404    -0.27734477     0.43191800     0.42215980
O      -4.02369052     2.45976950    -7.93432748    -0.46715847    -0.55523222    -0.47845968
O      -7.85838246     2.32296396    -3.91608592     0.14185940     0.57111650    -0.38473659
O      -7.90930601     2.35844914    -8.00423410     0.13638818    -0.52244860    -0.11816565
O      -3.91374687     6.36475061    -3.88695205    -0.46165011    -0.50100812    -0.33327331
O      -3.89808467     6.35418570    -7.91255443     0.77278964     0.98329987     0.19137044
O      -7.86308381     6.17384559    -3.93011148    -0.20593570     1.88794711    -0.59043918
O      -7.83080612     6.36814615    -7.95442200    -1.84469721     0.03692440     0.51868209
O      -3.78165212     4.35483663    -1.96513566    -0.72866983     0.05332376    -1.71092145
O      -3.84688256     4.38835360    -5.97678530    -0.56274467     0.05954922     0.12499203
O      -7.75723658     4.44750657    -9.89095681    -0.02180004    -0.07812197    -0.10909032
O      -7.87627617     4.29682133    -6.11113234     0.34118252     0.32800408    -0.55225411
O      -4.17495192     0.06120370   -10.00453014     2.35911887     0.20570646     0.19023923
O      -7.77359191     8.70204021    -6.16733863    -1.29091187    -0.03480174     0.25807292
O      -3.91078922     8.63418792    -2.04179622    -0.40068631     1.09904549    -0.18981105
O     -11.67159054     8.73463774   -10.03363054     0.61489839     0.18419339    -0.07054882
O      -2.02493164     4.30341269    -4.21304325     0.68534632    -0.23790809     0.88227363
O      -1.98465717     4.03864436    -7.97422167     1.11879305    -0.27335670    -0.16664587
O      -6.05127656     4.14071815    -4.05847419     1.38016688     0.63776779     0.07020443
O      -5.81205902     4.84253181    -8.10898532    -0.55061307    -2.44281651     0.55740394
O      -2.16690676     0.34060355    -4.06030610     0.45447138    -1.17797680     0.84233423
O      -5.94979995     8.64659336    -8.05625624     0.07310169     0.46873765    -0.14492199
O      -5.89922076     0.47412292    -4.16839806     0.37577378     0.01882512    -0.75145395
O      -9.95299012     8.44990547    -7.94809014     0.44468834    -1.02243581    -1.24415290
