# total energy = -630.92230417 eV

CRYSTAL
PRIMVEC
        0.00279571     0.02951795    -7.98606283
       -7.83802570     0.01298533    -3.99532603
       -3.92160916     8.71933433     0.00634407
PRIMCOORD
56 1
Li     -3.81463443     2.27589701    -1.89815043    -0.50110633    -0.00179587    -0.06301813
Li     -3.96208720     2.17806585    -5.96542084     0.12783972    -0.10795130    -0.13761360
Li     -7.85795304     2.39988846    -9.96482188    -0.21878642     0.28916255    -0.12070038
Li     -7.80147335     2.16130251    -5.71402155     0.13342155     0.10066416    -1.15699585
Li     -3.87328974     6.49224978    -1.86363637     0.12942191    -0.17151563    -0.44956596
Li     -3.72063437     6.35134498    -5.79012710    -0.59082326     0.11876645    -0.65249499
Li     -7.87432372     6.34972384    -9.99603835     0.02701664     0.14433893     0.32633984
Li     -7.80590132     6.73415616    -5.91323293     0.15429607    -0.78989369     0.13323071
Ti     -1.96020386     2.18347495    -3.98922746     0.78091585    -0.22530431    -0.38302938
Ti     -5.80834463     6.59006522    -7.91024031     0.28030391    -0.46920944     0.64916805
Ti     -7.89961367     4.45333215    -7.73526556    -0.07344570     0.21050679    -0.12566565
Ti     -7.90783335     4.46023560    -3.81688223     0.35815274    -0.89117134     0.97642200
Ti     -3.84020852     4.28248804    -7.74975200    -0.29689612     1.01466425    -0.48498172
Ti     -4.01460751     4.37117754    -3.73732292     1.42127498     0.51140753     0.35606958
Ti     -6.23866474     8.62731656    -2.05035557     1.12006462     0.55883165    -0.56854173
Ni     -5.91701070     2.43910403    -8.05588418    -0.09815804    -0.43744713     0.43025696
Ni     -5.87032217     2.27282710    -3.97197470    -0.38501278    -0.38174169    -0.16020765
Ni     -9.73967920     6.47545206    -7.94299065    -0.25701995     0.63404688     0.48917557
Ni     -9.79435936     6.53366834    -4.08194298     0.36290193     0.08394830     0.45314190
Ni     -1.85147067     2.12268801    -8.06966455    -1.07450143    -0.05964787     1.35992189
Ni     -5.83559479     6.59270175    -4.05165363     0.19626773     0.01177243     0.95711597
Ni     -5.93373805     8.72660084    -6.04800961     0.26335298    -0.68282955     0.80059371
Mo     -6.07224991     0.09056872   -10.19592338    -0.95262323     0.00842084     0.94609905
Mo     -9.80873096     8.66785700    -6.43170580     1.75048483    -0.25484345     0.59799054
O      -1.95573898     1.84460400    -2.03691757     0.50630848     0.14628393     0.75521391
O      -1.92183665     1.85900953    -6.10632321    -0.60742640    -0.39988397     0.12442896
O      -5.85578168     6.77558248    -1.95863459    -0.06023777    -0.47449820    -0.66756196
O      -5.80946306     6.76880273    -5.93041248    -0.31884858     0.81763249    -0.34046008
O      -5.96077891     2.07178408   -10.01240487     0.77065696    -0.17629864    -0.82684184
O      -5.89002479     1.87531307    -5.86905882     0.89421217     0.41897443    -0.22216858
O      -9.74007815     6.96725721    -9.79564200     0.02208173    -0.02829630     0.40448789
O      -9.72189628     6.71256003    -6.08619094    -0.82927045     0.52191551     0.43780752
O      -3.86484083     2.36573245    -4.02432028    -0.83490606     0.36350173     0.42004563
O      -3.89400945     2.40753595    -7.93865538     0.06472076    -0.14771677    -0.47757683
O      -7.88017455     2.43459884    -3.91959575     0.80400749     0.03363976    -0.10708217
O      -7.88618594     2.53412432    -7.99224087     0.89624343    -1.76375061    -0.45542609
O      -3.78893644     6.32407745    -3.93226472    -0.48951184    -0.08613306    -0.04851351
O      -3.86615246     6.33930601    -7.83911061    -0.71477385     0.37866058    -1.21239322
O      -7.85155892     6.35601239    -4.00426731     0.54782575     0.53641003    -0.05792388
O      -7.80645502     6.42325268    -7.87729934     0.01205341    -0.52561272    -0.74294402
O      -3.56428711     4.45999869    -2.01569048    -1.32797396    -0.61170973     0.26407466
O      -3.87582393     4.47370532    -6.02467076     0.17146407    -0.77412437     1.32493475
O      -7.86952966     4.43771826    -9.99195213     0.16139671    -0.09112626    -0.82458076
O      -7.82605902     4.23438627    -6.02251920     0.06380811     0.21550633     1.71619438
O      -4.05388913     0.15669539    -9.94503332    -0.03146307    -0.08833165     0.32522324
O      -7.96749346     8.49362432    -6.01125355    -0.00653756     2.09433192    -0.45072575
O      -7.56738917     0.03237252    -5.99477647    -1.46219756    -0.93521912     0.38278139
O      -0.00233243     0.02612530    -5.95464958     0.66023494     0.07338442    -0.63461051
O      -1.93197089     4.09197630    -4.01067777    -0.95516177     0.13153517    -0.59326597
O      -9.78219029     4.69704327    -3.93762967    -0.11517776    -0.30841926    -0.43058810
O      -5.84064242     4.28559864    -3.94276976    -1.17450081     0.12304087    -0.25255200
O      -5.93663099     4.40018725    -8.01293735     1.63884324    -0.05306876    -0.19204248
O      -2.01797241     0.13418563    -3.96457551     0.11333337     0.24893099     0.10225466
O      -5.79228392     8.39534210    -7.98243164    -0.28940439     1.20120079    -0.56366687
O      -9.64435581     8.60435439    -3.91431003    -0.78943884    -0.37426031    -1.46730755
O      -5.92445928     0.55913239    -8.15853562     0.17553132     0.53390091     0.18816422
