# total energy = -630.74560381 eV

CRYSTAL
PRIMVEC
        0.00279571     0.02951795    -7.98606283
       -7.83802570     0.01298533    -3.99532603
       -3.92160916     8.71933433     0.00634407
PRIMCOORD
56 1
Li     -3.99984521     2.15271736    -1.88214387    -0.04780892     0.02868360     0.04369961
Li     -3.96615286     2.36988123    -6.06034696    -0.09476077    -0.20396905     0.36078013
Li     -7.93674704     2.12382038   -10.07867089     0.45571474     0.42306522     0.22935212
Li     -7.83170945     2.48330696    -5.92743873    -0.19251311    -0.54395665     0.42261707
Li     -3.89554135     6.35319280    -1.97236517     0.16497604     0.18021803     0.07149912
Li     -4.00594845     6.57805240    -5.90979713     0.23380729    -0.04829427     0.07384379
Li     -7.85566288     6.64161876   -10.00326983    -0.16034504    -0.17285878     0.10864654
Li     -7.86943079     6.36108066    -5.73777446     0.01227181     0.42323592    -0.15374487
Ti     -1.99705783     2.37201220    -4.03669120    -0.16679528    -1.80035445     0.63588375
Ti     -6.02775530     6.74698277    -7.91495462     1.64095609    -0.11406383    -0.24040684
Ti     -7.73984384     4.37447170    -7.72932931     0.73462768     0.14547387     0.35012841
Ti     -7.80322093     4.40422891    -3.78821715    -0.42229772    -0.27040707     1.31492544
Ti     -3.98158676     4.42268326    -7.70636463     1.73921360     0.02584653     0.93995004
Ti     -4.04426005     4.27043759    -3.72511729    -1.31896212     1.86740497     1.22790631
Ti     -1.72939815     0.04098588    -2.08790574     1.26889651     0.36802409    -0.44900426
Ni     -5.94439268     2.17051117    -7.97656637     0.49238411    -0.27595478     0.10587475
Ni     -5.85472539     2.12828126    -4.11744666    -1.11361885     0.05434245     0.76637142
Ni     -9.76523198     6.24316058    -8.07177649    -1.30016621     0.68885989    -0.28784673
Ni     -9.88049532     6.57687194    -4.02308967     0.76581226    -0.16977116     1.16797288
Ni     -2.00236727     2.24978775    -8.02865006    -0.05337889     0.77011727     0.22597678
Ni     -5.83903433     6.61630684    -3.90308236    -0.17526775     0.33756741    -0.57738094
Ni     -1.94637636     0.20926173    -6.00500489    -0.59285947    -1.20177400     0.90287844
Mo     -9.88643665     8.74447783   -10.28379063    -0.19898532    -1.00144679    -0.17110613
Mo     -9.65311411     8.71349793    -6.32746007    -0.97324899    -0.46680235    -0.73795620
O      -2.06701881     1.98633713    -1.94345516     0.50970618    -0.35503876    -0.36634794
O      -2.03882702     2.02233722    -5.88358946     0.44440279     0.10316578    -1.29661591
O      -5.76945360     6.85287908    -2.04110355    -1.00247175    -0.22697991     0.34700753
O      -5.97084846     7.09650244    -6.02222668     0.12559835    -0.94261509     0.87543666
O      -5.96625416     1.85683416    -9.87695213     0.09467698     1.09131248     0.80636051
O      -5.90873815     1.87841518    -6.09152983    -0.55367574     1.27959652     0.09266793
O      -9.81401324     6.70697071   -10.16124332    -1.01012238     0.61497163     0.44337224
O      -9.79464651     6.85133359    -5.81102578     0.35766441    -0.01409920    -0.34905781
O      -3.97137566     2.29469168    -3.94661168     1.11666366     0.88237680    -0.00797418
O      -4.03528102     2.48680823    -7.95569235     0.09817463    -0.52293211    -0.29624926
O      -7.96006094     2.41336467    -3.96480273     0.60637500    -0.52275658    -0.82423891
O      -7.85783913     2.42728275    -8.00606288     0.14412075     0.41343497     0.59250519
O      -3.88213659     6.24383098    -3.96809256    -0.21521914    -0.73980356    -0.13589132
O      -3.94736271     6.38105090    -7.97486018    -0.00225874     0.01123034     0.43032840
O      -7.74216196     6.38065202    -3.82083685    -0.11597713    -0.00956853    -1.42473967
O      -7.89283679     6.31992729    -8.06160521     0.18205526     0.01950910     0.31520945
O      -3.92591593     4.42583644    -1.90001470    -0.15350967    -0.73233396    -1.90819657
O      -4.05245911     4.30410964    -5.89395241     0.67781136     0.29165953    -1.11369468
O      -7.75693461     4.36772342   -10.03343640    -0.00580171     0.07912004     1.53018259
O      -8.02547063     4.49171005    -5.93004177     0.76046753    -0.46369909    -2.01001444
O      -8.15093602     8.71687257    -9.94239118     1.62661798     0.04656278     0.52644815
O      -3.99741153     0.23149688    -6.16644672     0.79621890    -0.54433358    -0.16906759
O      -7.72754184     0.02184791    -6.01952228    -0.61495562     0.51876278    -0.20670964
O      -7.82111181     0.09019158   -10.03106016     0.21827753    -0.38214785    -0.00887952
O      -9.74763344     4.33072145    -8.06530529    -0.76938025    -0.60724451     0.00752978
O      -9.75005247     4.29964086   -11.90868271    -1.60545112     0.03395790    -0.30755100
O      -5.90525173     4.03913725    -4.05830999     0.55727601    -0.40211194    -0.09278988
O      -5.84266643     4.75086864    -7.82727553    -1.86813645    -0.04684029    -0.43352661
O      -2.00425966     0.32463415    -3.96774953     0.17946544     0.77943409     0.32748150
O      -5.81299362     8.57137550    -8.01609860    -0.53908792     1.16026492    -0.79985656
O      -5.73783700     0.16185932    -4.11944259    -0.77849315     0.32892337    -0.40330478
O      -9.87248477     8.10487148    -8.02853050     0.10662122    -0.23238361    -0.29862776
