# total energy = -630.75763301 eV

CRYSTAL
PRIMVEC
        0.00285542     0.02004370    -7.95977623
       -7.82940539     0.00763210    -3.98158109
       -3.91729101     8.74642787     0.01461334
PRIMCOORD
56 1
Li     -3.99232512     2.06452194    -2.01387593     0.04422359     0.09627688     0.35165370
Li     -3.94329153     2.08617709    -6.06672732    -0.60290360     0.10710036     0.19042113
Li     -7.94233440     2.00423718   -10.05483309     0.52570776     0.26678320     0.20668464
Li     -7.94253755     2.20212905    -5.91470729     0.27613957     0.13183999    -0.33726145
Li     -3.89860118     6.51069616    -2.02282857    -0.14911523    -0.23808005     0.14520819
Li     -3.97000280     6.66720207    -5.88246206     0.42986625    -0.67874983     0.49770051
Li     -7.78202513     6.51226003    -9.80658759    -0.07676926    -0.10260861    -0.36279819
Li     -7.82735573     6.55408458    -5.69267640    -0.25154325    -0.00390269    -0.76787372
Ti     -2.03570695     2.28587071    -4.06276681     0.29016064    -1.88231969     0.13654772
Ti     -5.80145962     6.74894936    -7.81399221    -1.13908140    -0.42431019    -0.68029165
Ti     -7.71821229     4.38846121    -7.71709672     0.36795850     0.04318468     0.76600761
Ti     -7.76921518     4.38289263    -3.77251662     0.39231590     0.67548845     0.41222131
Ti     -3.82366224     4.35458009    -7.75513311    -0.01864883    -0.47098068     2.00055987
Ti     -3.93240670     4.38118794    -3.77886145    -1.41904811     1.03488156    -0.59327675
Ti     -5.77236267     8.68906294    -2.12993231    -0.99376530    -0.19898862     0.23330803
Ni     -5.94452609     2.36820034    -8.00673750     0.68661371    -0.62223441    -0.36720207
Ni     -5.94661124     2.21229140    -4.01658788    -0.00642888     0.36069539    -0.96354223
Ni     -9.71821231     6.38114447    -7.93150504     0.00402782     0.92629174     1.29590530
Ni     -9.80887709     6.44221322    -3.87223354     0.45913666    -0.21159858    -0.11985201
Ni     -1.93272698     2.32291163    -8.01002992    -1.28194570    -0.10972293    -0.13641393
Ni     -5.90777199     6.84775020    -3.93230763    -0.15037533    -0.91587761    -0.10256087
Ni     -5.92348066     8.71833736    -5.97535116    -0.53293413     0.48780411     0.53935360
Mo     -9.78296341     8.65608391   -10.23083831     1.98583847    -0.08806530     1.35316807
Mo     -9.82501332     8.73019180    -6.25309270     0.82634150     0.02153306    -1.74115870
O      -1.96552316     1.82298048    -2.05494342    -0.38548013     1.37823697     0.52141963
O      -2.08835681     1.83222347    -6.00657523     1.15148080    -0.18399264    -0.01522552
O      -5.88022633     6.81043967    -1.96311139     0.04326821    -0.53658250    -0.07153726
O      -5.89840872     6.88663127    -5.86234630     0.30319079     0.00410232     0.26108816
O      -5.89866666     1.97226305   -10.02021126    -0.28530161    -0.10965915    -0.25168744
O      -6.07195791     2.02309610    -6.02861919     1.00948216    -0.77821685     0.73148665
O      -9.76097386     6.72599783    -9.72917291     0.58611262     1.28730100    -1.82265842
O      -9.81262938     6.85667590    -5.97305932    -0.01245352    -0.76051279     0.53782085
O      -4.00187114     2.40305309    -4.07890290     0.80602536    -0.23714784     0.28513729
O      -3.94679254     2.44795807    -7.94801619     0.53247868     0.03754342    -0.36950236
O      -7.90212763     2.44043689    -4.09548744    -0.03606725    -0.26964119     0.92571107
O      -7.91789988     2.36162280    -7.88086179     0.49491686     0.56793114    -0.96757189
O      -3.73829161     6.37119217    -3.98410639    -0.78276268    -0.65680652     0.56785177
O      -3.95570140     6.28936923    -7.88914868     0.39824571     1.65202457    -0.52623653
O      -7.88961054     6.48093103    -3.84336270     0.01306414    -0.93620320    -0.04649058
O      -7.72112455     6.41443215    -7.83755873    -0.57820566    -0.86217989    -0.79482264
O      -4.16253784     4.36508199    -2.04226360     0.57856990     0.37383442     0.28478550
O      -3.99379523     4.55595550    -5.95360226     0.47039017    -0.72344364    -1.04106523
O      -7.80556224     4.34803385    -9.96454695    -0.54402696     0.40391600     0.60593753
O      -7.93494384     4.61185013    -5.97385749     0.16672099    -0.57202258    -0.51858368
O      -3.95121107     0.02175122    -2.11358993    -1.84448101    -0.56220413     0.50023286
O      -8.07837864     8.69825426    -6.02025311     0.78039707     0.33711595     0.35326860
O      -3.88194083     8.56707402    -2.07395408    -0.25376570     0.66463437    -0.01884682
O     -11.51010482     8.65959228    -9.76665333    -0.75648789     0.25964335    -0.65269393
O      -1.95039754     4.07611337    -3.86935532    -0.63793384     1.38678340    -0.50064773
O      -9.75441659     4.48703938    -4.08092822    -0.36168570    -0.56551592     0.13657533
O      -5.92646847     4.10794761    -4.09738535     0.54764152     0.14731733     0.01462044
O      -5.81839088     4.34917910    -7.90108488    -1.37379312    -0.34967150    -0.23686574
O      -2.13327254     0.12174061    -3.97156601     0.72266911     0.27353625    -1.03401337
O      -5.91538249     8.54508859    -7.93208569     0.59860207     0.53310707     0.21690748
O      -5.95925486     0.27930053    -4.09545549    -0.29781901     0.47538418    -0.03211562
O      -5.75928825     0.52151243    -8.06620385    -0.75654783    -0.11497417     0.85550491
