# total energy = -630.45508592 eV

CRYSTAL
PRIMVEC
        0.00285542     0.02004370    -7.95977623
       -7.82940539     0.00763210    -3.98158109
       -3.91729101     8.74642787     0.01461334
PRIMCOORD
56 1
Li     -3.94553267     2.23481658    -1.74766220     0.23431528    -0.16091582    -0.98269514
Li     -4.09016791     2.43028325    -5.96229885     0.35000827    -0.42064943    -0.06602254
Li     -7.73447820     2.50032960    -9.99349516    -0.36554554    -0.51243528     0.14422405
Li     -7.81232856     2.11302470    -5.97078963     0.21134471     0.20067444    -0.19017933
Li     -3.93717845     6.56525981    -1.98072380    -0.15848128    -0.19972672     0.37108520
Li     -3.96153849     6.71351538    -5.71993923    -0.00967267    -0.09975055    -0.23654761
Li     -7.89103236     6.32396468    -9.83851489    -0.26607787     0.52998396    -0.42462912
Li     -7.66723265     6.33157057    -5.86198374    -0.72545149     0.23150204     0.13198562
Ti     -1.97038902     2.25653343    -4.12522741     0.09621419     0.26657552    -0.49908281
Ti     -5.86870055     6.62333865    -7.93267565     0.36364643     2.05729598    -0.04007301
Ti     -7.88407872     4.47013245    -7.71691428     0.12050516    -1.41686454    -1.69516817
Ti     -7.73232370     4.32353863    -3.83471665    -0.54877701     1.81096078     0.53194630
Ti     -3.78109074     4.37201147    -7.69344246    -0.92167416    -0.81358784     0.17076361
Ti     -4.09380077     4.36101808    -3.70391859     1.38576111    -0.08721523     0.40852421
Ti     -1.85984868     0.07420013    -2.09032366    -0.08946246    -0.07357387     1.62934436
Ni     -5.85841822     2.39432375    -8.10144324    -0.11964371     0.07018849     0.81515762
Ni     -5.92842644     2.14078618    -4.09720564     1.13677424    -0.39026622    -0.69367120
Ni     -9.89234414     6.48116338    -7.80582314     0.47853762     0.35462837    -0.73952114
Ni     -9.82911314     6.45010080    -4.03570526     1.02076613     0.83400137     0.53722910
Ni     -1.82581375     2.36466755    -7.95362814    -1.43451822    -1.21857567     0.27080341
Ni     -5.98010589     6.66775903    -3.90893244     1.09505041    -0.15492563     0.35438414
Ni     -6.03640631     8.69866356    -5.79679118     1.62509700     0.79217379    -1.98893460
Mo     -9.82655029     8.74488359   -10.23073419    -1.18872379    -0.33835837     0.39504429
Mo     -9.72041918     8.62902706    -6.31062211     1.05314154     1.13338478     0.13395934
O      -1.87392052     1.98827095    -1.90030295    -0.45006553    -0.30053500    -0.31178669
O      -1.98375914     1.85592122    -6.06633718     0.08983331     0.22541776     1.46144603
O      -5.99804257     6.84961532    -1.92045303     0.41537278    -0.14641831    -0.00409356
O      -5.89080585     6.85543951    -5.80661918    -0.24892918    -0.21507605     0.14094367
O      -5.96444720     1.95136213   -10.11718695     0.61430721     0.91110253     0.68492424
O      -5.94939356     1.98632672    -6.08937535     0.30303654    -0.40358613     1.06080120
O      -9.91433903     6.92387673    -9.75323279     1.13116513    -0.69582379     0.33389526
O      -9.73666566     6.72156812    -5.96489654    -0.56605770     0.25849915     0.18404231
O      -3.85184650     2.30658250    -3.94292973    -0.74179459     0.54576478    -0.40639814
O      -3.87451505     2.41146911    -7.88890021    -0.00115791     0.97264769    -0.18784671
O      -7.78980694     2.43630321    -4.01602650    -0.80608592    -0.64971581    -0.02613582
O      -7.78349804     2.45490606    -8.10224408    -0.91716350     0.46312049     0.64516833
O      -3.97296112     6.29479799    -3.83536476    -0.23481143     0.21528809    -0.29580001
O      -3.91638152     6.28491569    -7.94397912    -1.12030077     1.16520502    -0.15536655
O      -7.78785362     6.34194478    -3.95014265    -0.97897367     0.19555076    -0.27199142
O      -7.87257198     6.42969212    -7.86168914     0.12049856    -0.66640591    -0.17937078
O      -3.87389302     4.31901693    -1.94564126    -0.19469593    -0.12636644    -0.43679730
O      -3.72979578     4.35430236    -5.93738408    -0.49954357     0.03850645     0.28247884
O      -7.73383909     4.47241707   -10.02387405     0.01589192    -0.52730766     0.21302811
O      -7.75584015     4.39798335    -6.01683696    -0.27881454     0.10526606     1.68575448
O      -4.12197603     0.10021450    -9.86643550     0.14254503    -0.27210485    -0.47385565
O      -4.03599362     0.05934782    -6.13900596    -1.04789157    -0.68763831     0.62626933
O      -3.92413671     8.71746218    -2.03812165     0.65391970    -0.44687464    -0.21935005
O     -11.68877893     8.69120382    -9.84810905     1.28467152     0.55622732    -0.32104308
O      -2.01117966     4.16727566    -3.96845745     0.58396633    -0.16914773    -0.12859998
O      -9.71905832     4.66139352    -3.91221840     0.45365897    -1.47325193    -0.83810457
O      -5.84509117     4.03525277    -4.22889081    -0.53103091    -0.11011823     0.47319628
O      -5.90230562     4.36831791    -8.02930806     0.45978929     0.59899554     0.36830704
O      -2.09964266     0.24723302    -3.87389999    -0.00494784     0.18885794    -1.38234050
O      -5.84505585     8.53898257    -7.77170920    -0.05796660    -2.12192495    -0.46330647
O      -5.92253412     0.12751460    -4.16704706    -0.05980012     0.11121739     0.59494028
O      -5.79534024     0.54503960    -7.99723910    -1.01537711     0.07080834    -1.13412177
