# total energy = -630.91827057 eV

CRYSTAL
PRIMVEC
        0.00279571     0.02951795    -7.98606283
       -7.83802570     0.01298533    -3.99532603
       -3.92160916     8.71933433     0.00634407
PRIMCOORD
56 1
Li     -3.91407152     2.31918594    -1.95672580     0.06217064     0.17048408     0.28519016
Li     -4.00359457     2.16417259    -6.08705289     0.67469949     0.32409360     0.28277068
Li     -7.76933522     2.38680932    -9.96784247    -0.28995081    -0.42559521    -0.16098362
Li     -7.71639554     2.10126119    -6.03752139    -0.55621938     0.24440667     0.43905804
Li     -4.00468534     6.28013800    -1.79980629     0.47844843     0.06151510    -1.00592720
Li     -3.88630673     6.42312184    -5.80854251    -0.12003974    -0.00066211    -0.36851310
Li     -7.81713599     6.60281257    -9.90550312    -0.62298332    -0.18238528    -0.38649187
Li     -7.86832305     6.54894601    -5.91127020     0.00145544    -0.12637722    -0.02722112
Ti     -1.90315215     2.07893027    -4.07646739    -0.65474327    -0.19092252     0.28994019
Ti     -5.86309839     6.62840052    -7.92211300     0.02611101    -1.69376971     0.07151021
Ti     -7.94789124     4.39049121    -7.82490712     0.97458919     0.55266113     0.82657942
Ti     -7.79841018     4.31978555    -3.75471653    -0.24493935     1.01012526    -1.66580265
Ti     -3.73646173     4.39439378    -7.68063737    -1.10761816    -1.08386074     0.02147060
Ti     -4.08468545     4.34794008    -3.75545762     0.60690369     0.44294507     0.87591314
Ti     -6.09990588     8.67535784    -1.89630774    -0.35991983     0.50376643    -1.56574026
Ni     -5.88529492     2.44556734    -7.94576866    -0.19556284     0.69212691    -0.74850109
Ni     -5.83960827     2.09872011    -4.07781682    -1.11405365    -0.06524846     0.74283472
Ni     -9.84199113     6.61869358    -7.92215165     0.01510532     0.09557099     0.16441362
Ni     -9.79088173     6.49616108    -4.04714498    -0.06077425    -0.00482684     0.57503725
Ni     -1.80169289     2.04604022    -8.06067435    -1.02664878     0.12775660     0.92352726
Ni     -6.05496347     6.68436950    -3.97017387     1.75686964     1.32505081     0.29817953
Ni     -5.87033950     8.70025653    -6.03769196    -0.16526048     0.14443216     0.14361762
Mo     -5.99510665     0.16077602   -10.29209902    -1.63221938    -1.17560637     1.35439673
Mo     -9.74924399     8.70145383    -6.38260143    -1.17273834    -0.43324679    -0.16821582
O      -1.92742797     1.88538546    -1.94495329    -0.00233964    -0.32684060    -0.49887930
O      -1.92560499     1.85784013    -6.17206688    -0.59145797    -0.34674715     1.40988257
O      -5.85955613     6.73195648    -1.96323287    -0.22136021     1.11487229    -0.00730903
O      -5.89490794     6.83697203    -6.03781851     0.17391411     0.22147688     0.97710554
O      -5.89854168     1.99728888   -10.04056126     0.52803847     1.04424177    -0.97666999
O      -5.85553940     1.96132121    -5.95122872     0.88857743     0.06405625     0.82551558
O      -9.83271538     7.01113676    -9.73311841    -0.04451692    -0.11595789    -0.20333955
O      -9.87533393     6.81394345    -6.05669267     0.60990411    -1.11255586     0.30821200
O      -3.99358612     2.37991240    -3.93160107     0.70659081    -0.35275414    -0.70196820
O      -4.00881451     2.54213248    -7.98766685     0.47489689    -1.09903427    -0.02951158
O      -7.84813736     2.39181107    -3.96933084     1.35828806    -0.00902791    -0.48803825
O      -7.86707412     2.33201872    -7.97201468     0.41489982     0.36043147    -0.72740660
O      -3.81275583     6.31161283    -3.97044616    -0.03787354     0.17553329     0.50971301
O      -3.94475923     6.25539083    -7.89538939     0.19328895     1.98396599    -0.28439159
O      -7.91004259     6.39721965    -3.93908512    -0.44565591    -0.63524203    -0.34446253
O      -7.80192932     6.38082381    -8.02193722    -1.06371719    -0.60040718     0.61826239
O      -3.86072493     4.31664397    -1.96510032    -0.05988485     0.17493970    -1.19519956
O      -3.82630351     4.34373241    -5.92004647    -0.10797042    -0.11703360     0.61984899
O      -7.80690883     4.29723232   -10.02541808    -0.00522471    -0.16483225     2.08080222
O      -7.83016120     4.18516126    -6.09232701     0.33642399     0.63190201     0.40576265
O      -7.96105775     8.72553821    -9.99723959     0.64215373     0.36304305     0.35211452
O      -7.91774538     8.50269715    -6.11559501     0.23830923     1.37618426     0.22714797
O      -7.59191212     0.04579582    -6.01923023    -0.49281774    -0.04261813    -0.06893519
O      -7.84472945     0.15389025   -10.06994309     1.42730533    -0.31063117     0.00038283
O      -1.96712023     3.98791720    -3.88729598    -0.64940380    -0.27122784    -1.01432933
O      -9.73340910     4.71043109   -11.86857540     0.83373205    -0.37635778    -0.77396947
O      -5.90830329     4.90343639    -3.92073871    -0.56611536    -1.22067290    -0.59280725
O      -5.85509428     4.53376396    -8.06311362    -0.40311886    -0.76986399     0.52064537
O      -2.06420408     0.06626458    -3.89135713     0.26649721     0.19222721    -0.38041972
O      -5.78660854     8.54090901    -8.01602298    -0.24553251    -0.44431606    -0.47616721
O      -9.83463629     8.39235193    -4.01660126     0.28913515    -0.23651689    -1.04712601
O      -5.88636902     0.60577839    -8.10739967     0.25184776     0.00525540    -0.16998562
