# total energy = -630.77569148 eV

CRYSTAL
PRIMVEC
        0.00285542     0.02004370    -7.95977623
       -7.82940539     0.00763210    -3.98158109
       -3.91729101     8.74642787     0.01461334
PRIMCOORD
56 1
Li     -3.90027604     2.51131226    -1.98872314    -0.05330470    -0.34730333     0.20792328
Li     -3.99978210     2.17245099    -6.04592901     0.22356809    -0.08201286     0.41674971
Li     -7.76199835     2.25107570    -9.76938091     0.24375083    -0.14204270    -1.51279153
Li     -7.94148101     2.19281245    -5.91364231     0.48829321    -0.19405085     0.32621775
Li     -4.04295410     6.62151071    -1.99830158     0.56427119    -0.11381649     0.14333138
Li     -3.75929304     6.43664276    -5.91618897    -0.57394273    -0.01279776    -0.15353098
Li     -7.93594550     6.38882971   -10.00313909     0.28149656     0.21042477     0.96920699
Li     -7.88037207     6.45597955    -5.76657935     0.35180115     0.07316730    -0.44896173
Ti     -2.00338770     2.19902373    -4.08454285    -0.27998242    -0.18552578     0.64262243
Ti     -5.79155706     6.66037687    -7.72775861    -0.50854466    -0.20505980    -2.36986760
Ti     -7.93122899     4.38624806    -7.71916474     0.71020492     0.99835734    -2.28974329
Ti     -7.88722654     4.38318736    -3.68937341     0.23857077    -0.73186387    -1.34285589
Ti     -3.91497130     4.29986120    -7.76181321     0.46750977     0.69386399     0.50520193
Ti     -3.97321053     4.52693413    -3.82615849     0.21088927    -0.52129835    -0.20479280
Ti     -6.10569653     8.66654931    -2.04418017     0.84176084    -0.12751468    -0.29723789
Ni     -5.91462190     2.33178315    -7.88850855     0.15643273     0.54560792    -1.46178746
Ni     -5.85483814     2.31767243    -4.01689226    -0.59282811    -0.40241836     0.09795699
Ni     -9.80086028     6.52226681    -7.88677706    -0.07304590     0.55836711    -0.31794698
Ni     -9.72240063     6.48632498    -4.07459157    -1.00167678     0.81810170     0.85368042
Ni     -1.92581277     2.06885187    -7.79425356    -0.01058910    -0.03889677    -2.13173845
Ni     -5.85352257     6.59297819    -3.96100923    -0.29165048     0.53908628     0.37857572
Ni     -5.93008793     8.71603110    -5.93789464     0.79918576    -0.69538604    -0.04892167
Mo     -5.88077930     0.04278750   -10.23568217    -1.88406625     0.58802090    -0.04444733
Mo     -9.74937227     8.69209958    -6.36254763    -1.98545645     0.06378962     0.57809998
O      -1.95919578     1.78829068    -1.84202474    -0.02236172     1.25925379    -0.37917201
O      -1.93678239     1.79824686    -5.98227120    -0.75034507     0.18146769     0.62511541
O      -5.93128131     6.72646031    -2.03814352     0.18366292     0.78260802    -0.14686521
O      -5.80010041     6.79500278    -5.90208078    -0.76586533     0.64354868     0.93085667
O      -5.82969725     2.06104299   -10.09875828     0.09736235    -0.46521239     0.36277593
O      -5.87037667     1.91892832    -5.91802235    -0.05022364     0.37745959     0.48981586
O      -9.86653777     6.87753728    -9.79226977     1.51724462     0.75926479     0.39454946
O      -9.75004695     6.82469750    -5.95090302    -0.19031043    -0.85180274    -0.97889716
O      -3.94623609     2.47824022    -3.98342506     0.44778196    -0.23220690    -0.29034033
O      -3.89344032     2.38268453    -8.01207208     0.15694514     0.76518934     0.85018697
O      -7.85084819     2.40052476    -3.88180721     0.38373284     0.80713436    -0.37456822
O      -7.89438829     2.40132472    -8.00687252    -0.33079347     0.15225504     1.10644348
O      -3.91017700     6.46729125    -4.04074618     0.79034027    -0.06363591     0.61860162
O      -3.88707331     6.38153790    -7.92041034    -0.89766525    -0.29599933    -0.12829235
O      -7.81648220     6.42113898    -3.87529257    -0.03618061    -0.74758180    -1.01698196
O      -7.78688396     6.37355347    -8.06431192    -0.32540661    -0.75952428     1.62377298
O      -3.87705429     4.59296073    -2.08293668     0.22783292    -0.58672370     1.26895395
O      -3.73754475     4.48958725    -5.98186150    -0.68665370    -0.58721284    -1.29339087
O      -7.95322497     4.41941432    -9.93358863     0.11691576    -0.26857250     0.68817860
O      -7.93339757     4.33866971    -6.02552892     0.18654403     0.25734189     2.37398653
O      -3.99621046     0.09583361    -9.89995088    -0.18898169    -0.48330568    -0.16327429
O      -7.98437566     8.70409403    -5.93894539     0.81854344     0.27575945    -0.48481233
O     -11.60211416     8.75489880    -6.07841148     0.97653594    -0.54747101     0.39040868
O      -7.67989752     0.12528031   -10.12355808     0.13718907    -0.12707053     0.30660717
O      -2.00892824     4.20101209    -4.08273188     0.42694176    -1.19179913     0.21453109
O      -9.79447609     4.64975958    -4.06760386     0.26073263    -0.26629517    -0.06775874
O      -5.82914801     4.67569904    -4.06061871    -1.97400465    -0.66619599    -0.06930885
O      -5.94394197     4.28429325    -8.03688237     1.21463792    -0.03634663     0.66058174
O      -1.93078206     0.14736148    -3.95470239    -0.40443253     0.50983444    -0.10484767
O      -5.87683232     8.44304749    -8.00148484     0.05622205     0.23118059     0.35620703
O      -9.64658258     8.49425706    -4.00128610    -0.19818438    -0.54583822    -0.51942706
O      -5.88782591     0.47999908    -8.11408084     0.14260884     0.63956842    -0.08997281
