# total energy = -631.26978195 eV

CRYSTAL
PRIMVEC
        0.00279571     0.02951795    -7.98606283
       -7.83802570     0.01298533    -3.99532603
       -3.92160916     8.71933433     0.00634407
PRIMCOORD
56 1
Li     -3.99329194     2.24798285    -1.95884164     0.30900598     0.25724867    -0.15048416
Li     -4.01388557     2.16765306    -6.23848058     0.41405578     0.05961816     0.87750776
Li     -7.75512656     2.34616617    -9.96251381     0.13578103    -0.20407630     0.05948060
Li     -7.77527261     2.22299601    -5.94900210    -0.05294865    -0.02342906    -0.13845819
Li     -3.98697737     6.61177319    -1.84118756     0.32015116    -0.39405279    -0.52217537
Li     -3.84455559     6.59155322    -5.91042677    -0.64588655    -0.14029451     0.08082223
Li     -7.81721957     6.73379101   -10.06857017     0.03459723    -0.87005658     0.59933947
Li     -7.84373918     6.64430414    -5.79531491     0.06406093    -0.32485600    -0.43067416
Ti     -2.10280424     2.35781968    -4.18256877     0.88152296    -0.00675614     0.15411963
Ti     -5.96048895     6.76543622    -7.96940075    -0.42220695    -0.59926569     0.19281588
Ti     -7.81171513     4.42195255    -7.71071310     0.38082690    -0.30172254    -1.60738923
Ti     -7.90658220     4.38540144    -3.72700127     0.53003711     0.01365443     0.89845508
Ti     -3.96856615     4.41707522    -7.75427011    -0.08904494     0.25331181    -0.27370011
Ti     -4.07284926     4.50124226    -3.72225022     0.34163541     0.92544529     0.46028659
Ti     -1.83135172     0.06452070    -2.15339644    -0.40053982    -0.49706643    -0.60619158
Ni     -5.77430535     1.90810222    -8.05880444    -0.67460261     0.30690981     0.64788641
Ni     -5.85406791     2.37680269    -4.07467732    -0.97011039    -1.07772157     0.01067004
Ni     -9.82324637     6.63916364    -7.94427728    -0.11400553     0.54274037    -0.03828800
Ni     -9.78501230     6.45971702    -3.85000506    -0.25214467     0.37831319    -1.30695604
Ni     -1.94760206     2.21730218    -8.05882485    -0.31400002    -1.14214814     0.32102565
Ni     -5.88220794     6.68454554    -3.95657167     0.04055918     0.18829896    -0.16692548
Ni     -5.84265469     8.73783129    -5.94956709     0.27991201     0.71448679    -0.25376539
Mo     -9.78225086     8.58541758   -10.37080347    -0.83865365     1.21092991    -0.99557908
Mo     -9.80624643     8.59575557    -6.17406835     1.94749546     0.09779612     0.38597430
O      -1.91893056     1.92391651    -2.02807277    -0.74402191     0.30234933     0.22992609
O      -1.90444781     1.93782970    -6.09810831    -0.44083098    -0.73690701     1.01118072
O      -5.88336505     6.79028612    -1.99555139    -0.03433233     0.62613996    -0.03351389
O      -5.79095643     6.91564428    -5.89314360    -0.53721339    -0.14858930     0.02141088
O      -5.79976830     1.80713576    -9.82335952    -0.58277068     0.35467266    -1.40663901
O      -5.85150303     1.85366853    -6.22419450    -0.42513736     0.62806812     0.68039542
O      -9.81670392     6.67742787   -10.00934357     0.39395201    -0.04299606     0.74906046
O      -9.86711381     6.78182550    -5.71912232     0.09731793    -0.50030158     0.31227829
O      -3.97354079     2.52695079    -4.08799167     0.30335345    -1.29270092     0.12452318
O      -3.92841582     2.40311662    -8.06048565     0.11581573     0.02293553     0.13419854
O      -7.85302974     2.41350649    -4.02714226     0.87762875     0.38808508    -0.08273213
O      -7.86525414     2.47716010    -7.87483455    -0.01232929     0.35342698    -0.77459690
O      -3.91047741     6.46697353    -3.90663288    -0.14131216    -0.91761748    -0.10731923
O      -3.86992338     6.42044934    -7.98956309     0.12805561    -0.73740039     1.02720880
O      -7.81047957     6.41429996    -3.96791487    -0.23243200    -1.02883895     0.56572618
O      -7.91315475     6.46616897    -7.99116700     0.34545349    -0.10417826     0.06894272
O      -3.94930683     4.31360807    -1.98063571    -0.16659548     0.10371771     0.18632705
O      -3.99196125     4.30543456    -5.99710031     0.22408611     0.26347588    -0.54572421
O      -7.92163221     4.35521569    -9.92441513    -0.04988753     0.45156436    -0.89966151
O      -7.97504359     4.66644091    -6.02612341     0.26041322    -0.35058265     1.49761965
O      -7.99198123     8.56900579   -10.05052020     0.96548188     0.78755522    -0.06626544
O      -7.99494428     8.58918055    -6.05104484    -0.34788546     0.46232954     0.22366809
O     -11.73245312     8.68850316    -6.04388554    -0.33424405     0.07138050     0.22485217
O     -11.55898093     8.64612541   -10.04181346    -0.40913517     0.06062950     0.08285361
O      -2.11010762     4.22352664    -3.91019609     1.48049374     0.09453166    -0.73669052
O      -1.93358511     4.03437241    -8.01841325    -0.93251162     1.21547569    -0.08527292
O      -5.91070646     4.16233290    -3.96261469    -1.07244163     0.81683646    -0.43447595
O      -5.88504078     4.81088157    -8.03004657    -0.31259217    -0.27465283     0.49107779
O      -1.98361023     0.29278197    -4.03468973    -0.04745090     0.31733666     0.26543289
O      -5.95985067     8.64678625    -7.94971552     0.38306359     0.35355038    -0.43817195
O      -5.91654342     0.52942959    -4.15482773     0.22347996    -0.58948401     0.50315542
O      -9.82525856     8.64762932    -8.02645707    -0.10905908    -0.22841604    -0.67209702
