# total energy = -631.42936860 eV

CRYSTAL
PRIMVEC
        0.00279571     0.02951795    -7.98606283
       -7.83802570     0.01298533    -3.99532603
       -3.92160916     8.71933433     0.00634407
PRIMCOORD
56 1
Li     -3.82032724     2.21640105    -1.98884788    -0.48987035     0.12617221     0.56108995
Li     -4.05209662     2.17207212    -5.92939932     0.09952333     0.16174088    -0.13600517
Li     -7.85864238     2.40269559   -10.12057552     0.00403829    -0.16800341     0.72449202
Li     -7.83493195     2.01163658    -5.86326839    -0.50350327     0.19565493    -0.39077756
Li     -3.91726370     6.35857460    -1.92998505     0.16633962    -0.03301604     0.03135422
Li     -3.92069253     6.32594213    -5.80755862    -0.16238093    -0.16597844    -0.06182248
Li     -7.97935176     6.33116913    -9.90495667     0.15580009     0.38110188     0.06619313
Li     -7.81379763     6.61490314    -5.98512697    -0.09049789     0.01189580     0.69951695
Ti     -1.93026584     2.24888885    -4.08614588     0.92102886    -1.11004108    -0.00807737
Ti     -5.83654955     6.62284533    -7.90975756     0.55227377    -0.38971884    -0.15122001
Ti     -7.92833236     4.43466742    -7.71159874     1.03508333    -0.45111241     0.35259749
Ti     -7.81489320     4.41744882    -3.78603699    -0.37627370     0.23101812    -0.35551993
Ti     -3.74366522     4.28216935    -7.68644630    -0.72212274     0.26612724     0.23566180
Ti     -4.09546204     4.26988157    -3.70643923     1.26618499     1.87917019     0.57974721
Ti     -6.10376278     8.59635823    -2.16133289    -0.19109447     0.16018044     0.64184520
Ni     -5.82542319     2.48374660    -8.10636543    -0.40354882    -0.90461271     0.66990950
Ni     -5.99552174     2.32141328    -4.01381445     0.16530467    -0.57363116     0.22471683
Ni     -9.83055225     6.70218559    -7.84766930    -0.82632313    -0.61001163    -0.05545534
Ni     -9.73700652     6.53264296    -3.99327838    -0.31567884     0.16567869     0.17877599
Ni     -1.90509041     2.02142289    -7.94284668    -0.45771205     0.18336176    -0.61288203
Ni     -5.90145314     6.58482561    -3.96486696     1.13051505    -0.36080614     0.34106713
Ni     -5.85070925     8.69154525    -6.07321582    -0.48658082    -0.19554406     1.34325740
Mo     -6.01167198     0.08706956   -10.27015362     0.00249786    -0.43056094     0.26224380
Mo     -9.70890176     8.72241986    -6.38810095    -1.02386657     0.94852096     0.46199634
O      -1.96933096     1.83374547    -1.89306012     0.22069430    -0.39873311    -0.56227060
O      -1.98548938     1.87007377    -6.05361000     0.07608959    -0.47256673     0.41491935
O      -5.84971104     6.65233063    -2.01129240    -0.28703111     0.85938588     0.23160036
O      -5.90367658     6.78366959    -5.89375622     0.33745020     0.61265231    -0.72375658
O      -5.91591202     1.99589217   -10.05562328     0.45684956     0.14453594    -0.78988995
O      -6.03192150     2.02500427    -5.86370441     1.97743329    -1.05072573    -0.74675194
O      -9.94953002     6.92095443    -9.70442939     0.90451235     0.46004688    -0.19056853
O      -9.75440242     6.83507083    -5.94857055     0.18015219    -0.41214178    -0.65436269
O      -4.11978972     2.39974048    -3.91416156     1.91546148    -1.23313460    -0.59244901
O      -3.81034245     2.37867935    -7.96067095    -0.39435800     0.45631457    -0.07165359
O      -7.85033459     2.43362208    -4.00583315    -0.59869596    -0.29913593     0.22319924
O      -7.82657830     2.43261537    -8.11913417    -1.03282561     0.48408701     0.60826826
O      -3.94054360     6.29569968    -3.88548988     0.38262018     0.12485488    -0.12126483
O      -3.94358650     6.30566259    -7.85009967     0.13132177     0.18563297    -0.41853001
O      -7.76074504     6.37647852    -3.90418298    -0.87996656    -0.27166104    -0.52649738
O      -7.86986696     6.40195433    -7.90665332    -0.01555739    -0.61359205    -0.25890651
O      -3.99357975     4.32745669    -1.93131148     0.14650316    -0.06333016    -0.27428515
O      -3.95290249     4.28478994    -5.91751191     0.40749846     0.16381956    -0.65388519
O      -7.83300182     4.35776553   -10.00947707    -0.31669194     0.09963520     0.42802790
O      -7.98701003     4.27014766    -5.97298638     0.20009858     0.41584627    -0.58203323
O      -7.93753680     8.56323261    -2.16707525     0.26723946     0.58296081     0.58859514
O      -7.82894679     8.69405190    -6.08353319    -0.60765176     0.31390849    -0.02907467
O     -11.51020455     8.71055433    -6.21153190     0.15792765    -0.25971661     0.35492314
O      -7.78232362     0.12892447   -10.09741919    -0.33133534    -0.26516701    -0.09661302
O      -2.03652101     4.11367105    -3.99825589     0.06843978    -0.39181238    -0.14959579
O      -9.75271217     4.60212383    -4.00865756     0.01681549     0.70134675     0.05503252
O      -5.90057861     4.37143486    -4.12220793    -1.25028970     0.16732132     0.07384977
O      -5.89155151     4.37504912    -7.98989671    -0.27399898     0.31311827     0.25035723
O      -1.87472067     0.23497429    -3.93899631    -0.26774357     0.27087655    -0.93077155
O      -5.79944070     8.44160873    -8.05217643    -0.10875561    -0.04021379    -0.74060492
O      -9.71235241     8.48816143    -4.05990886    -0.61135809    -0.37689052    -0.00555069
O      -5.71673882     0.62171633    -8.15520098    -0.25553831    -0.07147155     0.14340370
