# total energy = -630.19231654 eV

CRYSTAL
PRIMVEC
        0.00279571     0.02951795    -7.98606283
       -7.83802570     0.01298533    -3.99532603
       -3.92160916     8.71933433     0.00634407
PRIMCOORD
56 1
Li     -3.91138267     2.12765584    -1.99677956    -0.15547606     0.37257176     0.13558405
Li     -3.98487387     2.28556606    -6.09954337     0.40416286     0.18823373     0.51891480
Li     -7.90255019     2.01444676    -9.94532547     0.48588581     0.18043762    -0.18546633
Li     -7.58960968     2.42582713    -5.87629742    -0.97085033    -0.28771124    -0.17871127
Li     -3.84855546     6.48522704    -1.98806303    -0.23337397    -0.00795200    -0.02466947
Li     -3.83980345     6.27830460    -5.89071886    -0.38101599     0.84675073     0.81020718
Li     -7.94470259     6.56886343   -10.00737027     0.62933006    -0.36362001     0.52714751
Li     -7.94422704     6.35386689    -5.80830896     0.69308214    -0.06857107    -0.34160154
Ti     -2.02829984     2.24903132    -3.99789258    -0.12928403    -1.29996953    -0.06581695
Ti     -5.89168555     6.92131940    -7.85373830    -1.92828734     0.69831057    -0.39352843
Ti     -7.84989773     4.28946812    -7.74905428    -0.43827297     0.48753189    -1.37917036
Ti     -8.02054208     4.35559457    -3.66697895     0.40774749     0.17299111     1.46321618
Ti     -4.01703770     4.42198738    -7.71142285    -0.36098739    -0.91033259     0.10240147
Ti     -4.19596963     4.31963321    -3.74124076     0.34094011     0.82146499    -0.36127045
Ti     -1.67647655     0.01937809    -2.21092969     0.00243747    -0.66556888     0.50078311
Ni     -5.84355695     2.33656856    -8.16593808    -0.53744647     0.46632757     0.15187139
Ni     -5.98071763     2.14771670    -4.00886295     1.03909197     0.45384431    -0.07517887
Ni     -9.70909923     6.46328706    -7.81934961    -1.16537179     0.39190481    -0.84517190
Ni     -9.90980048     6.54434773    -3.88941267     0.16735055    -0.51562880    -1.04508816
Ni     -2.02119052     2.13107944    -7.88006552     0.94836035    -0.06257714    -1.47579846
Ni     -5.97245290     6.57733053    -3.96019072     0.46215051    -0.20921367    -0.31297365
Ni     -1.97726068     0.06065100    -5.91105034     0.89348687    -0.51789883    -0.84067564
Mo     -9.70709772     8.71335367   -10.34421921    -3.70334054     1.05161393     0.97905661
Mo     -5.69252760     0.02665909    -6.40903143     0.86721335    -1.86278151     0.73258204
O      -1.98822059     1.90844738    -1.96973888     0.29262603     0.07045024    -0.41084574
O      -1.98219427     1.90857965    -6.03971298    -0.40674454    -0.32709366     0.50124996
O      -5.95274970     6.83469644    -2.01562917    -0.13417580     0.21885958     0.01256689
O      -5.77183781     6.93620404    -5.86385296    -0.55499432    -0.47097617    -0.31054964
O      -5.94969368     2.14317466   -10.11260464     0.76127463    -1.49883481    -0.29917062
O      -5.82587103     1.84506721    -5.98477149    -0.23893531     0.80791854     1.23881813
O      -9.89727894     6.89135028    -9.80131280     1.52137471    -0.37990417     0.33200137
O      -9.69296303     6.86089653    -5.98883762    -0.91768277    -0.79994256    -0.00502087
O      -3.99261207     2.33989671    -4.09727492    -0.33438921     0.11644005     0.60399062
O      -3.85618937     2.46769550    -8.06022704    -0.79793823     0.33273189     0.83021901
O      -7.84711774     2.46171452    -3.94742454    -0.80949113    -0.65029259    -0.15981943
O      -7.86013431     2.32936476    -8.02643086    -0.00286062     0.63360615     0.42043404
O      -3.76976648     6.30276019    -3.87967641    -0.26060407    -1.07258617     0.01568657
O      -4.12291404     6.44479911    -8.04519691     1.62600353    -1.25327185     0.66362877
O      -8.00196435     6.35407871    -3.95471017     0.73264614    -0.46325046     0.36300451
O      -7.80468447     6.35309307    -7.90416309     0.25039860    -0.53540441     0.14704782
O      -3.97771203     4.21311024    -2.00132660     0.11583135     0.61492891     0.06882777
O      -3.99570694     4.41723920    -5.91493507    -0.04422096    -0.32105775    -1.39066885
O      -7.75042062     4.44000084    -9.87863725    -0.74143201     0.23973413    -1.59018735
O      -8.03223250     4.25817636    -6.02131260    -0.01602390     0.79314811     0.96067070
O      -4.05196399     0.09772707    -2.27405049     1.50422042    -0.02686355     1.55242233
O      -7.78574012     8.57968376    -6.22248795    -1.49193109     0.98926347    -0.04608846
O     -11.60992913     8.63120697    -6.15746108     0.51547892     0.20994202     0.16364877
O      -7.64015917     0.09443530    -9.98548763    -0.36097163     0.27474679    -0.63444438
O      -2.03107594     4.00668273    -4.13418771     0.28282887     2.21545977     0.31670209
O      -2.13154562     4.56715204    -7.81226956     1.48583317     0.87588135    -0.63243634
O      -6.04158368     4.45617479    -4.17880612    -0.08576270     0.58143632     0.75234604
O      -5.96113229     4.14430358    -7.90452811     1.05300386     0.82209655    -0.13871385
O      -1.97074176     0.20581479    -4.01864492     0.01859788    -0.09391665     0.16384505
O      -5.90052747     8.69045093    -8.15192497     0.23071228    -0.17174844     0.30032019
O      -9.67161630     8.47429292    -4.14335203    -1.00510167     0.17819818    -1.01002492
O      -5.87889075     0.57973237    -8.10435827     0.60420387    -1.24497718    -1.33490304
