# total energy = -629.61384638 eV

CRYSTAL
PRIMVEC
        0.00279571     0.02951795    -7.98606283
       -7.83802570     0.01298533    -3.99532603
       -3.92160916     8.71933433     0.00634407
PRIMCOORD
56 1
Li     -3.93632946     2.43500662    -1.97536134    -0.08253191    -0.43066394     0.03374367
Li     -3.89547735     2.28666243    -6.02736161    -0.09283231    -0.09176273     0.08760281
Li     -7.84426398     2.50303816    -9.95870659    -0.01738170    -0.41043249    -0.12558114
Li     -7.78733938     2.16069420    -6.03236820     0.17293204    -0.02177967     0.18195868
Li     -3.91474980     6.47789338    -2.05814258     0.23766945     0.13391955     0.38353691
Li     -3.92850450     6.32720426    -5.89987530    -0.05861641     0.24570833    -0.13325387
Li     -7.84159967     6.27442073    -9.95927193    -0.28573489     0.71126613     0.13735988
Li     -7.74622365     6.43617599    -5.98265314    -0.16935750     0.11086244     0.21628578
Ti     -1.98707147     2.16576769    -3.96881852     0.35809763    -0.47208214    -0.99987276
Ti     -5.79630368     6.80121672    -8.03010770    -0.16950955    -1.71842331     2.12295898
Ti     -7.78396981     4.43394050    -7.76535974     0.86676549    -0.41555249     0.10740258
Ti     -7.81222671     4.36975299    -3.79042905     0.22231683    -0.20666919     0.32897283
Ti     -3.84480212     4.33580541    -7.76742931    -0.44671914    -0.11299287     0.33577531
Ti     -3.93778327     4.43823839    -3.77748282    -0.09192697    -0.38720798     0.33248035
Ti     -6.09270195     8.69437206    -2.11756358    -0.89020547     0.49258698    -0.35646869
Ni     -5.85389834     2.18862411    -8.08043075    -0.18658081     1.36485528     0.83610725
Ni     -5.87506965     2.21748024    -4.08113338    -0.13627995     0.32977103     2.26645283
Ni     -9.81101260     6.66610288    -7.95592119     1.06807013     0.37485040     1.40167581
Ni     -9.77862299     6.48923086    -4.05234222    -0.39796723    -0.15247522     1.06365617
Ni     -1.94940481     2.15829898    -7.99584937     0.30995849    -0.08877022     0.16868720
Ni     -5.87505883     6.59338808    -3.94778210    -0.10899457    -0.10764877    -0.02385508
Ni     -2.01265012     0.02421530    -5.95686019     0.18143883    -0.07697820     0.63982320
Mo     -6.10027041     0.03769255   -10.30773645     1.33502421     0.32078220     1.79515543
Mo     -9.73843602     8.65633635    -6.20526128    -1.71049156     0.35485331    -2.71806190
O      -1.92807630     1.89422397    -2.03238553    -0.13815125    -0.12325501     0.77911172
O      -1.93748168     1.90868029    -6.06747064    -0.31415262    -0.40240428     0.52616485
O      -5.90612543     6.72504663    -1.87087298     0.25248876     0.37879270    -2.02155805
O      -5.83657949     6.89158595    -5.82886604    -0.26308410    -0.01390786    -0.54431060
O      -5.85337008     2.00017608   -10.00605501    -0.43993286    -0.83444869    -1.16344181
O      -5.77236171     1.92971559    -5.82481091    -0.60806221    -0.47398581    -2.15116105
O      -9.78460352     6.92564653    -9.76310562    -0.35176240     0.55956139    -1.24634681
O      -9.74790496     6.73877461    -5.90688553    -0.13365113     0.11992297    -1.54730230
O      -3.99088764     2.33432283    -4.03427339     0.99300995     0.75960489     0.43561170
O      -3.91423424     2.34582553    -8.01681160     0.38642757     1.40916721     0.07759347
O      -7.81906626     2.35682276    -4.06586444    -0.36380015     0.99055672     0.40232907
O      -7.78107982     2.34833394    -8.03339596    -0.47839466     1.14438907     0.29064402
O      -3.79114120     6.41420999    -4.00538522    -1.04369048    -1.11004958     0.33809974
O      -3.87461110     6.47973086    -8.04632201    -0.42003068    -1.02094940     0.72080311
O      -7.91624178     6.38401118    -4.03870067     1.04184852    -0.90295521     0.54722861
O      -7.85272917     6.43342118    -8.00853646     0.16615271    -1.11517745     0.54910431
O      -3.90687443     4.42547515    -1.99779084    -0.04214797     0.05058984    -0.00505104
O      -3.97411113     4.38499727    -5.99103034     0.38384513     0.10023756     0.27258899
O      -7.87274641     4.41380379    -9.95469124    -0.24956149    -0.17810162    -0.44532772
O      -7.85269916     4.40000740    -6.01412077    -0.41881316     0.04465644     0.58368475
O      -3.97139113     0.01476717    -2.12471158     0.12280898    -0.08238056     0.09127419
O      -7.95965627     8.69039395    -6.31854419     0.78926170     0.05880989     1.28962606
O     -11.58728567     8.71148530    -6.25529641    -0.39055950    -0.35850467     1.15508411
O      -7.81858505     0.05830470   -10.16914206    -0.09059287     0.01842694     0.58182513
O      -1.99336893     3.96442789    -3.77245190     0.16037866     1.29021093    -0.96617493
O      -9.77275716     4.53737516   -11.77295060    -0.36465270     0.38685188    -1.17162398
O      -5.88921223     4.30411705    -3.74547712     0.33603023     0.07844845    -1.43273972
O      -5.84921353     4.44135927    -7.74272219    -0.24052464    -0.02747269    -1.46339102
O      -1.94603381     0.16004010    -3.97198898    -0.22810125     0.00954463    -0.71174492
O      -5.96387932     8.56859121    -7.80688232     0.66333981     0.47897645    -2.06399398
O      -9.90716279     8.64276845    -4.12760731     0.85275726    -0.10971102     0.33355894
O      -5.99716400     0.42940301    -8.12094573     0.73084451    -0.77595609    -0.16698547
