# total energy = -631.00705552 eV

CRYSTAL
PRIMVEC
        0.00279571     0.02951795    -7.98606283
       -7.83802570     0.01298533    -3.99532603
       -3.92160916     8.71933433     0.00634407
PRIMCOORD
56 1
Li     -3.83961385     2.32313155    -2.03487581    -0.64294054     0.08700122     0.77807444
Li     -3.97205814     2.15099474    -5.99263190    -0.27471563     0.00540857    -0.26580333
Li     -7.94029274     2.45261645    -9.91751998     0.64880291     0.23432300    -0.86206532
Li     -7.92066786     2.22381669    -5.91647254     0.87179879     0.21158925    -0.02403015
Li     -4.00630696     6.46758954    -1.97633933     0.63241759    -0.23877105     0.05013089
Li     -3.92830247     6.27330272    -5.93524721    -0.21797980     0.56495177    -0.07904551
Li     -7.83960175     6.34734265    -9.99964750    -0.03490527     0.11653561     0.30949090
Li     -7.90890527     6.71487011    -5.86514009     0.56275125    -0.15374779    -0.03946965
Ti     -1.99848005     2.25923797    -4.02841393     1.13985630    -0.13156592    -0.31315770
Ti     -5.88352031     6.81441436    -7.97603329     0.96456802     0.61232756     0.80845151
Ti     -7.77573350     4.40140301    -7.80680917     0.55521227    -0.77604285     0.29824657
Ti     -7.74775327     4.46589079    -3.89558616     0.18492728    -0.05422310     1.37878966
Ti     -3.74933971     4.32356406    -7.78389016    -0.88411833     0.17730917    -0.41041568
Ti     -3.94280475     4.34294733    -3.79673381    -0.95474473     0.82329554    -0.11627846
Ti     -6.17466341     8.67857759    -2.11571269     0.91177882     0.57068017    -0.37204031
Ni     -5.87751512     2.31984856    -8.01378350     0.25520528     1.26451057    -0.25514676
Ni     -5.89955264     2.15658808    -3.98992743    -0.00810415     0.89063068    -0.62910146
Ni     -9.86250206     6.49527542    -7.92521994     0.30014991     0.17586242     0.50118032
Ni     -9.79706834     6.51075389    -3.83318165     0.20516533     0.55920712    -0.57341112
Ni     -1.85053665     2.12827618    -7.95937482    -0.33253251     0.35488701    -0.39009288
Ni     -5.83141346     6.60264374    -3.99787181    -0.30197576     0.12869798    -0.33597453
Ni     -2.04618487     0.06451360    -5.99275996     0.09463918     0.07434596     0.10065614
Mo     -9.92710573     8.67248816   -10.19489136    -1.79995339     0.05172599     1.16098917
Mo     -9.87325991     8.63111730    -6.29886537     0.83923332     2.16518345    -1.13308929
O      -1.91429008     1.89412640    -1.98430725    -0.66588646     0.22450238    -0.08949158
O      -2.02760870     1.95639413    -6.11428903     0.74899786    -0.71673716     1.23690643
O      -5.82217437     6.78283055    -2.01599135    -0.49844051     0.26001955     0.26534115
O      -5.93938777     6.86083204    -5.91209293     0.05120804     0.76949817    -0.51293353
O      -5.87060606     1.99119061   -10.02031671     0.33906314    -0.71151527    -0.63265206
O      -5.92134757     2.02889334    -5.84952173    -0.19068809    -1.19554465    -1.33127235
O      -9.80961561     6.72702575    -9.80887983     0.08929199     0.94787903    -0.59971697
O      -9.78219392     6.80550357    -5.96367275    -0.42238687    -0.56022237    -0.03752599
O      -3.95886656     2.36598282    -4.06986293     0.80835216     0.19772704     1.01298142
O      -3.73927308     2.44779449    -7.96906778    -0.86071378    -0.41835346    -0.62703014
O      -7.79881944     2.53357726    -3.91327654    -0.78030176    -1.73801586    -0.35205681
O      -7.82093069     2.42973403    -8.08757600    -0.86286734    -0.38498274     0.55653449
O      -3.94049025     6.30992446    -4.05817798     0.40683170     0.16796778     0.69810884
O      -3.99054207     6.36631430    -7.98461975    -0.47379859     0.31104284     0.30565041
O      -7.74605909     6.43734965    -3.95283590    -0.53433183    -0.17464385    -0.15298738
O      -7.78898093     6.29417003    -7.94699499    -0.13042210     1.45813664    -0.15999022
O      -3.90638061     4.49036884    -2.03077674    -0.11984625    -0.60524326    -0.46073439
O      -3.85471716     4.44088885    -6.04430110    -0.00186638    -0.28622247     0.48922512
O      -7.68113938     4.45753136   -10.04949085    -0.78115853    -0.11779887    -0.94927948
O      -7.86631697     4.25490940    -6.06426018    -0.35333492     0.31254728     0.61215856
O      -7.95013006     8.57007518    -9.93692469     0.14808181     0.44625451    -0.30878741
O      -4.06392322     0.11757318    -5.97075126    -0.56940529    -0.79570600    -0.53275504
O     -11.63700862     8.73427213    -5.93933706     0.61670091    -0.17116807    -0.50386397
O      -3.88548033     8.58195391    -6.06888272     1.10326666     0.53216135    -0.07165583
O      -1.98050937     4.18889801    -4.04317177    -0.11361443    -0.41976258    -0.20592119
O      -9.74205591     4.66638619    -4.07084521     0.41681213    -0.40775315     0.02744963
O      -5.86375573     4.20896880    -4.25778005     0.55935734    -0.10321726     0.85110024
O      -5.89355140     4.21507570    -8.06742505     1.04168175     0.21367703     0.31030686
O      -1.93902111     0.36990286    -3.98281633    -0.32640879    -1.09949051    -0.05390869
O      -5.85132111     8.71119288    -8.04059699    -0.30695823    -2.19649644    -0.31152921
O      -5.78235604     0.18953863    -4.02127885    -0.58683274     0.18101472     0.48797435
O      -5.83412284     0.52834904    -8.14743458    -0.45146475    -0.89684657     1.43379482
