# total energy = -631.08056373 eV

CRYSTAL
PRIMVEC
        0.00285542     0.02004370    -7.95977623
       -7.82940539     0.00763210    -3.98158109
       -3.91729101     8.74642787     0.01461334
PRIMCOORD
56 1
Li     -3.89576552     2.13457130    -2.00236314    -0.33193919     0.21138344     0.14799390
Li     -3.91555079     2.15468297    -6.09387807    -0.15284526    -0.01202935     0.15090556
Li     -7.74517965     2.08626413   -10.07023545    -0.22696779     0.19186340     0.20785250
Li     -7.74263326     2.22023532    -5.92747080    -0.08575542     0.08921356     0.15093900
Li     -3.92588354     6.29706053    -1.94764436    -0.29161185     0.30554321     0.23250548
Li     -3.89841537     6.46827349    -5.74797252    -0.39412044     0.20380511    -0.61225835
Li     -7.84896282     6.71065856    -9.94845805    -0.09866098    -0.47966455     0.04913386
Li     -7.90580461     6.36713076    -5.94732366     0.33421993     0.11767374     0.44869848
Ti     -2.02126666     2.22382387    -4.12364178     0.22900194     0.39674678    -0.27559534
Ti     -5.98522193     6.80822580    -7.98124197     0.79381625     1.23833502     0.48881565
Ti     -7.80199678     4.30113372    -7.79406615    -1.01523494    -0.48654356    -0.40180846
Ti     -7.82670751     4.40446868    -3.75661532     0.25501037    -1.02352733    -0.36319043
Ti     -4.01514732     4.47611319    -7.64070176     0.72683273    -1.40432951    -0.70197666
Ti     -3.96011964     4.42406123    -3.77775843    -1.14962696    -0.32539819     0.51255169
Ti     -1.84684261     0.08569727    -2.15860735     0.32445502    -0.59832040     0.65621240
Ni     -5.85187327     2.37855610    -8.04416657     0.08685470    -0.23471165    -0.60021057
Ni     -5.79803078     2.14371208    -3.96821635    -0.98033507     1.10111059    -0.40658896
Ni     -9.81099206     6.47119768    -7.69793660    -0.54228848     0.22612765    -0.98421124
Ni     -9.76671497     6.42377642    -3.89495575    -0.55476432    -0.00771470    -0.30368821
Ni     -2.04451558     2.38945319    -8.02684056     1.26576531    -1.18054312    -0.11883272
Ni     -5.93927528     6.62731701    -3.94736332     0.02677792     0.18011601    -0.16630559
Ni     -1.97513802     0.03604039    -5.96974191    -0.35464210    -0.23763579    -0.56135420
Mo     -9.81743016     8.64598409   -10.13971777     0.58190947     1.41740587     0.78982728
Mo     -9.72207346     8.67545641    -6.30081472     0.26286902     0.18665334     0.28116003
O      -2.00162805     1.97464397    -2.04485088     0.60344634    -0.14802340     0.05522846
O      -2.02389586     1.88109073    -6.15025902     0.36731937     0.12719207     1.41452467
O      -5.93116389     6.80061676    -1.96617553     0.41188681     0.09786490    -0.10919656
O      -6.01242105     6.92923447    -5.88570003     1.14236548    -0.19941092     0.01802477
O      -5.80954227     2.03029333   -10.05946830    -0.23679173    -0.11794557     0.42403287
O      -5.78299849     1.79225332    -5.90580885    -0.55628559     1.53777034     0.16384244
O      -9.83523398     6.86513054    -9.64918849     0.50132441    -0.98078538    -0.16271900
O      -9.93859407     6.82815574    -5.81333916     1.23233391    -0.69058942    -0.14893398
O      -3.91097467     2.35961852    -4.03177923     0.29977624     0.02522119    -0.18650417
O      -3.89759357     2.47980813    -8.05508757    -1.12617631     0.58616537     0.76004936
O      -7.91747802     2.45010415    -3.96980248     0.14430370    -0.39872565    -0.54238492
O      -7.75742878     2.33567002    -7.95370135    -0.88061219     0.68628316    -0.53252290
O      -3.98555264     6.39787253    -3.93303783     0.33831077    -0.48996838     0.88201121
O      -3.89820965     6.36027067    -7.82560176    -0.90510465     0.45033697    -0.48264216
O      -7.86767295     6.35288536    -4.00004995    -0.27412727     0.18641345     0.08163454
O      -7.79998382     6.27791146    -7.90680404    -0.59989863     0.99282085    -0.14741704
O      -3.74009819     4.33916535    -2.02862084    -0.35432144     0.59635522    -0.39107234
O      -3.90291718     4.47983783    -5.88893865     0.04738422    -0.42982515    -0.26700436
O      -7.75429168     4.47432674    -9.99511247    -0.52209153     0.14526894     1.35811929
O      -7.76065897     4.35932233    -6.05642290    -0.35685013     0.20571187     0.83085947
O      -7.92731691     8.72707129    -2.03948583    -0.11814734    -0.28741162     0.18927773
O      -7.90090521     8.62277263    -6.07222910    -1.48981784     0.13206846    -0.21695284
O     -11.66920991     8.71052000    -6.04998414    -0.44595292     0.39197051    -0.03304648
O      -7.68840756     0.09964972    -9.99388793    -0.81961783    -0.46399727     0.19519036
O      -1.98450222     4.07262234    -4.13432476     0.71832565     1.15539324     0.20341979
O      -2.01623321     4.20584589    -0.10464341     0.34892520     1.28708935     0.69501362
O      -5.87822972     4.12689332    -3.90755514     0.52485012    -0.26433533    -0.67502095
O      -5.92793297     4.34800893    -7.99716998     1.86273863    -0.00314571    -0.22939949
O      -2.00566281     0.34492601    -3.99306878     0.25864018    -1.53119603    -0.62127115
O      -5.95149485     8.67076322    -8.03601516     0.17002499    -1.40419226     0.30317727
O      -5.89131659     0.23943716    -3.95435728     0.22878678    -0.06928735    -1.59220131
O      -5.93737387     0.54310757    -8.08405938     0.76254184    -0.47632488     0.27595751
