# total energy = -630.38147784 eV

CRYSTAL
PRIMVEC
        0.00279571     0.02951795    -7.98606283
       -7.83802570     0.01298533    -3.99532603
       -3.92160916     8.71933433     0.00634407
PRIMCOORD
56 1
Li     -3.86708135     2.49249286    -2.06391823     0.25517187    -0.60163557     0.53021660
Li     -3.97879607     2.35187092    -5.95586648    -0.02595412    -0.21743835    -0.44326503
Li     -7.63063629     2.31815104    -9.94954407    -0.05972012    -0.39880123    -0.10746638
Li     -7.84986174     2.12532014    -5.85961409     0.20735978    -0.15342490    -0.40364387
Li     -4.02694620     6.74862570    -1.88037291     0.41325610    -0.56094101    -0.40609030
Li     -3.91695401     6.45404224    -5.72753583     0.15543094    -0.18902215    -0.33864720
Li     -7.96237233     6.28353309    -9.98398100     0.10058486     0.46203449     0.82052471
Li     -8.01834034     6.31560813    -5.79475550     1.23984291     0.38716025    -0.11087493
Ti     -1.88249472     2.27624266    -4.23315527    -0.55531627    -0.25304857     1.43305011
Ti     -5.86279083     6.71442072    -7.81580745    -0.56139482    -0.77543105    -0.28978626
Ti     -7.81303231     4.37555455    -7.59193224    -0.91037624     0.76611076    -1.12457768
Ti     -7.95437535     4.27580183    -3.65863453     1.45233173     0.99931107    -1.33299028
Ti     -3.92175379     4.36417767    -7.82099134     0.21719760    -0.03198672     1.47564635
Ti     -4.09584996     4.40352039    -3.69036077     0.08558388     1.09053828    -0.47769444
Ti     -2.21463766     0.03420185    -2.12300378     0.31333782    -0.12633817    -0.52337423
Ni     -5.79567718     2.44308064    -7.95770706    -0.09098426    -0.79674006    -0.22929423
Ni     -5.91717322     2.20934284    -4.14364819     1.32697993    -0.47973616     1.30668685
Ni     -9.81748821     6.61101167    -7.89630195    -0.10685293    -0.48228130     0.53467189
Ni     -9.79317326     6.40032109    -4.11832319    -0.78225639    -1.05401180     1.41888888
Ni     -1.94656693     2.12502237    -7.96442424     0.55815368     0.26003481    -0.74839208
Ni     -6.02815063     6.70980967    -3.87836843     1.03637219    -0.56423913    -0.11570451
Ni     -5.85016123     8.69390454    -6.06398846    -0.22831295     0.41451449     1.23121130
Mo     -5.93834726     0.09291969   -10.36411291    -0.50126670     0.55933376     1.25864725
Mo     -9.74446977     8.60647514    -6.40467353     0.01881041    -0.28774613    -0.10688889
O      -1.90869281     1.94855184    -2.01555625    -0.33893851    -0.88075364     0.48176842
O      -1.92768322     1.91469198    -6.08629660    -0.16613477    -1.23031216    -0.16379451
O      -5.96613471     6.79426354    -1.91314349    -0.08317339     0.19193392    -0.54178351
O      -5.84412301     6.83710729    -5.83135052     0.00212162     0.52418889    -1.22641634
O      -5.72877841     2.06331700   -10.23018087    -0.55937873    -0.50158128    -0.02217003
O      -5.87382037     1.78234267    -5.93787737    -0.00441624     1.57840024     0.15037658
O      -9.85770680     6.97815555    -9.75893204     0.38383902    -0.41837652     0.47348175
O      -9.77920665     6.61961350    -5.95485658    -0.53543358     0.98265970    -1.79172279
O      -3.95031536     2.44804562    -4.08470175     0.00276053    -0.05281586     0.45277946
O      -3.81066454     2.47420951    -8.01153431    -0.49205365    -0.67478184    -0.21888550
O      -7.75975402     2.39814359    -3.96546766    -0.57678716    -0.66125008    -0.35602790
O      -7.78920491     2.49371154    -7.96178504    -0.29320430    -1.25021002    -0.00919513
O      -3.83058306     6.40924096    -3.84283408     0.12912026    -0.67964935    -0.58324402
O      -3.93854965     6.30419799    -7.97133436    -0.80541664     0.63270730     0.32027712
O      -7.96749849     6.37610254    -3.89859981     0.29944474    -1.00821470     0.00173997
O      -7.85361697     6.36756390    -7.80881733     0.33755081    -0.70118009    -0.71057340
O      -3.73988627     4.42921350    -1.95995795    -0.63956897    -0.55240294    -0.08600118
O      -3.88939899     4.26495170    -6.02333289     0.38797725     1.05811416    -0.11905434
O      -7.92940393     4.14771188    -9.91557866     0.22920047     1.40924998     0.95446818
O      -7.66809917     4.40520505    -5.88806570    -0.45552872    -0.39374585     1.14232777
O      -7.94987587     8.68169391    -2.09897338     0.61039083     0.51582208    -0.06645012
O      -7.99854851     8.60159305    -5.93903876     0.84167023     0.01816857    -0.08803660
O     -11.52318463     8.61584461    -6.09907119    -1.01910032     0.26152200     0.43264389
O      -7.69384477     0.17597605   -10.06524625    -0.56370016     0.22727406    -0.01623248
O      -2.00444385     4.07612890    -3.92684934     0.83213905     0.27222268    -0.33842859
O      -9.74313011     4.39641371    -4.03837192    -1.32072247     1.19888399    -0.17320358
O      -5.93368827     4.79727331    -3.87625217    -0.22664683     0.10239035     0.01718849
O      -5.89873236     4.28886275    -7.85773209     0.72582390     1.13176674    -0.93909455
O      -1.87863955     0.09347282    -4.01426473    -0.50788645     0.20195872     0.56222355
O      -5.90598697     8.47010885    -8.08918581     0.23883754     1.36890370     0.76393479
O      -9.88652291     8.24061875    -4.05530687     0.24508381     0.56213245    -0.67214358
O      -5.74924275     0.66730316    -8.10448801    -0.13712593    -1.24073743    -0.79740761
