# total energy = -630.19303141 eV

CRYSTAL
PRIMVEC
        0.00279571     0.02951795    -7.98606283
       -7.83802570     0.01298533    -3.99532603
       -3.92160916     8.71933433     0.00634407
PRIMCOORD
56 1
Li     -3.97519187     2.22469369    -1.92000431     0.31892911    -0.05277602     0.46251655
Li     -3.95723675     2.18222066    -5.93368612     0.09864668     0.04616541    -0.12697052
Li     -7.86780993     2.29458304    -9.98188480     0.41914160    -0.17075057     0.10740467
Li     -7.90719570     2.17999306    -5.86026526     0.38232178     0.18447081    -0.38745280
Li     -4.01617735     6.35190471    -2.00811220     0.81834515     0.05196110     0.56090710
Li     -3.87204901     6.60513538    -6.05186672    -0.47090609     0.04168126     0.83755880
Li     -7.68172552     6.66640248   -10.05414579    -0.95877889     0.20591755     0.41402202
Li     -7.92118437     6.55990200    -5.97891910     0.04316037    -0.25449473     0.07028672
Ti     -2.04021289     2.26727364    -3.92095602     1.14827330     0.84141002     0.13236509
Ti     -5.95480535     6.68140472    -7.94086982    -0.28494605     0.52186379     0.14376332
Ti     -7.69614126     4.23887954    -7.85263897     0.06171426     0.80407969     0.26784163
Ti     -7.80964807     4.50073588    -3.65856138    -0.84373474    -0.02233012    -0.68392535
Ti     -3.78854167     4.37467863    -7.61554586    -0.78248390     0.24864145    -0.21243998
Ti     -4.07169652     4.38339346    -3.69727705     1.72520572     0.01002682    -0.01756961
Ti     -2.01384977     0.01067808    -2.15365884    -0.54891669     0.66696766     0.86827958
Ni     -5.75648829     2.03209459    -7.80104338    -0.87089895     0.56674553    -1.97494274
Ni     -5.89920530     2.44800321    -4.06330771    -0.07445844    -1.39498761    -0.36122796
Ni     -9.82539659     6.26392298    -8.10048887     0.08872579     0.86963149     0.00749788
Ni     -9.83738061     6.66909816    -3.98792420     0.19479578    -0.40274579     0.19255964
Ni     -1.85482159     2.27430879    -8.01911581    -1.17105428    -0.14879696     0.92556189
Ni     -5.79791140     6.51190543    -3.95574714    -0.81959542     0.49064632    -1.07459192
Ni     -2.01580879     0.10205271    -6.06167195     0.65036564    -0.11403267    -0.24576285
Mo     -5.95946705     0.03876058   -10.27498233     1.58803998    -0.91676372    -0.54022629
Mo     -9.85660408     8.66653873    -6.36702551    -2.24863481     0.21393034     0.24308274
O      -1.91769552     1.97063134    -1.97114361    -0.79485774     0.54021189    -0.32768843
O      -1.86375583     1.93025346    -6.13561832    -0.87964619    -0.13068433     0.57947217
O      -5.78506235     6.83056345    -2.07209950    -0.37450729    -0.05852306     0.16789548
O      -5.88534052     6.95172876    -6.06540034    -0.41859836     0.07526502     1.02141370
O      -5.80157071     1.83894818    -9.88025724    -0.39012837     1.25453091     1.45267329
O      -6.02970331     1.94265907    -6.02023369     1.35690699     0.09379675     0.50872378
O      -9.80033538     6.75001211   -10.00185319     0.21037941     0.46222802    -1.88733931
O      -9.91737987     6.74819078    -5.89698398     0.18821084     0.53484272     0.27567541
O      -3.91762744     2.39233863    -3.91533613    -0.81855903     0.18976564    -0.29300905
O      -3.86377024     2.42866356    -7.91129779    -0.62307805    -0.42062680    -0.12312143
O      -7.79733407     2.54972469    -3.99544552     0.33792416     0.06633996     0.18051905
O      -7.84977377     2.25812683    -7.90145036     0.61328296     1.18449411    -1.15636898
O      -3.90527490     6.27044763    -4.07347064    -0.12706872    -0.12160589     0.33481564
O      -3.90384306     6.32850899    -7.87022323     0.26938540     0.33847170    -0.67260360
O      -7.77349836     6.49474860    -4.01463813    -0.18425442    -1.32076710     0.29871632
O      -7.94935745     6.42074483    -8.11517921     1.29129499    -1.07797553     0.98039880
O      -3.98797985     4.36344203    -1.92547108    -0.18500807    -0.24174931    -0.51509942
O      -4.00614543     4.21001451    -5.87190563    -0.09578069     0.22113152    -0.88175137
O      -7.84556557     4.36688406    -9.89620937     0.07734734     0.08273729    -0.55409832
O      -7.94432515     4.28300793    -6.14572855     0.09870427     0.81542863     1.10011858
O      -3.93664236     0.08646153    -9.92439572     0.36567190    -0.66596839    -0.60040280
O      -4.23340920     0.09541193    -6.02514046     1.78566826     0.06359778    -0.11718752
O      -7.82124724     0.18771140    -6.06031808     0.53817587    -1.08463325    -0.07668202
O      -7.69127185     0.10365861   -10.18036973    -1.23640447    -0.49920155     0.86141400
O      -2.03574264     4.25485293    -4.05560877     0.44815065     0.22584346    -0.01902939
O      -1.91663095     4.29362594    -7.88335905     0.19647683     0.15762123    -0.42730224
O      -5.92252665     4.39495226    -4.08392664    -0.71881082    -0.53630323     0.13273172
O      -5.88066263     4.81691425    -8.04648454     0.52351016    -1.30865499     0.44341638
O      -2.02008323     0.41104948    -3.99578620    -0.04742636    -1.29758067    -1.28344696
O      -5.84093109     8.63964337    -7.99920214    -0.07684863    -0.32919889    -0.15109602
O      -5.88457419     0.26891987    -4.08561082     0.19433254    -0.13705669     0.42752618
O      -9.85224198     8.13311176    -8.13812744    -0.22174166     0.36252175     0.76884329
