# total energy = -630.68971877 eV

CRYSTAL
PRIMVEC
        0.00279571     0.02951795    -7.98606283
       -7.83802570     0.01298533    -3.99532603
       -3.92160916     8.71933433     0.00634407
PRIMCOORD
56 1
Li     -4.10720298     2.08321300    -1.87835128     0.75802108     0.46821398    -0.29968116
Li     -3.96203733     2.25168062    -6.07505374     0.24988206     0.31969197     0.48333558
Li     -7.86064153     2.19587375   -10.14169072     0.02368681    -0.02630584     0.91334763
Li     -7.91851424     2.15846673    -6.00125842     0.23845174     0.30030283     0.52958675
Li     -3.94183531     6.89459688    -1.87406621     0.49430329    -0.95909051    -0.24636615
Li     -4.12381184     6.58494396    -5.95305699     0.76106196    -0.11858367    -0.10457978
Li     -7.90392300     6.76593794   -10.13165474    -0.19133975    -0.45636038     0.57432288
Li     -7.80000018     6.55140420    -5.85371133    -0.28159020    -0.38221841    -0.20679582
Ti     -1.96717770     2.01430388    -4.07816214    -1.00760964     1.06874398     0.55921223
Ti     -6.03221591     6.51969868    -8.00104905    -0.02809421     2.23393907     0.05287886
Ti     -7.83366755     4.36301510    -7.75266885    -0.89478895     0.37738403     1.18431505
Ti     -7.78091366     4.31642672    -3.75067697    -0.18313378     0.67065523     0.01487367
Ti     -3.71751668     4.37100908    -7.74743251    -0.13791099     0.35449852    -1.60555648
Ti     -3.98488648     4.44338676    -3.76139501     0.33589200    -1.68356549     1.50061231
Ti     -5.73194325     8.72442133    -2.02518237    -0.59419339     1.24340634     1.32522300
Ni     -5.84907612     2.33972479    -7.86398388    -2.11395409    -0.58579940     0.11414260
Ni     -5.83881531     2.24947339    -3.99230464    -0.86833724     1.77354776    -0.19833405
Ni     -9.87192256     6.41609102    -8.18310631    -0.07936475    -0.49481873     1.07218174
Ni     -9.74839858     6.45616829    -4.00711883    -0.66058482     0.69467996     1.16454205
Ni     -1.95061955     2.06674467    -8.00520383    -0.18507424    -0.14187143     0.03447010
Ni     -5.92478794     6.63264948    -3.91725865    -0.36978754    -0.27262247    -1.25931811
Ni     -2.00580659     0.02740008    -6.01050472     0.49598990     0.06067130    -0.51865010
Mo     -5.95881987     0.07410946   -10.26334606     0.82062928     0.28715292    -0.45508529
Mo     -5.77094478     0.10300327    -6.30147186    -0.36688633     0.97653062    -0.54641723
O      -2.05093381     1.94747384    -2.04289787     0.39132453    -0.49891964     0.32264193
O      -1.92229959     1.95061219    -5.98180688    -0.32531388    -0.99999434    -0.78285339
O      -5.98518978     6.83871704    -2.09065740     0.65113335    -0.55195764     0.93724516
O      -5.94473348     6.88826629    -6.03765497    -0.08547287     0.49726848     0.44668187
O      -6.00280489     1.92757396    -9.67330258     0.62541787    -0.59030695    -0.57928823
O      -5.94944244     2.04072042    -5.94804844     0.44955767    -0.31233324    -0.83439314
O      -9.96586101     6.90247213   -10.03408737     0.85816825    -1.34058741    -1.06148086
O      -9.67016910     7.09854904    -5.75188024    -0.83819490    -1.51523320     0.49154088
O      -3.86671217     2.45213499    -4.03091287     0.50079842    -0.77533662    -0.33767721
O      -4.10090811     2.40910916    -8.00092343     1.67518976     0.40789772     0.44938029
O      -7.82160329     2.33935679    -3.99450811     0.46877930     0.06767973    -0.26479942
O      -7.84602083     2.46428468    -7.97305850    -0.34465061    -0.29007613     0.24906309
O      -4.00687938     6.27573691    -3.98511552    -0.14018062     1.85756673    -0.18331901
O      -3.81467718     6.33181918    -8.02372998    -0.38425003    -0.28369446    -0.08728545
O      -7.86979790     6.41255781    -3.96988248     0.29985337    -0.86803171    -0.27556027
O      -7.96977805     6.36868485    -7.92945762     1.10883249     0.38658992    -0.56451508
O      -4.09220532     4.24088027    -2.00941972     0.29339859     0.24012632     0.12829617
O      -3.94588411     4.39187777    -6.03269665    -0.59089504    -0.13522289     0.94850546
O      -7.87060620     4.54390024    -9.98834758     0.01920715    -0.07359374     0.54984834
O      -7.82740173     4.49395254    -5.95319787    -0.15741821    -0.11742784    -1.16791992
O      -7.99333146     8.68428000   -10.05039680    -1.26436251     0.72864908     0.16609771
O      -4.01488870     0.19690003    -6.27707735     1.18266804     0.31251586     0.70298291
O      -7.79239019     0.06859512    -6.08109036    -0.33389436     0.22388832     0.22462171
O     -11.68849804     8.73165866   -10.03833103    -0.96398380     0.33608472    -0.01983382
O      -9.82365550     4.52586009    -7.95395901     0.07178190    -0.02384426    -0.35645776
O      -1.87522958     3.97953283    -7.86266484    -0.83360401    -0.04683644    -0.78992166
O      -5.93032856     4.11018196    -3.93696924     0.83625618    -0.15187347    -0.65293300
O      -5.91442598     4.75738970    -7.98725364     0.27797466    -1.80380349     0.04641646
O      -1.97063522     0.19572524    -3.96058566    -0.26213473    -0.07102029    -0.86374780
O      -5.92172277     8.54889071    -8.08491390     0.28705458     0.70559558    -0.33347186
O      -5.87681709     0.46156640    -4.07909498     0.09151426    -1.05557774     0.00762758
O      -9.94074172     8.24176000    -8.01325446     0.07205605     0.33068525    -0.62204230
