# total energy = -631.05765107 eV

CRYSTAL
PRIMVEC
        0.00279571     0.02951795    -7.98606283
       -7.83802570     0.01298533    -3.99532603
       -3.92160916     8.71933433     0.00634407
PRIMCOORD
56 1
Li     -4.03465552     2.16386502    -1.95436831     0.16619778     0.21579950    -0.13096089
Li     -3.92533850     2.21653609    -5.89768819    -0.12200380    -0.11136251    -0.50695167
Li     -7.87953074     2.51160028    -9.99267195     0.25606776    -0.22307304    -0.06506832
Li     -7.86027970     2.25115192    -5.89099175     0.49345412    -0.24369780    -0.03386057
Li     -3.75032914     6.39827044    -2.08874990    -0.98770475     0.07880005     0.54369576
Li     -3.85477522     6.43209186    -5.89803311    -0.40999993    -0.20483667    -0.27737640
Li     -7.86508569     6.42473006    -9.85059703    -0.13955939     0.15969004    -0.39811633
Li     -7.60838868     6.81833678    -5.74667909    -0.90059383     0.03758020    -0.86609485
Ti     -1.90236762     2.20853522    -4.03206129    -0.69614070     0.46777824     0.03676590
Ti     -5.88908932     6.70209084    -8.04880822     0.25732815    -0.75579202     0.64893040
Ti     -7.79048251     4.36554813    -7.59124967    -0.64338952     0.30835596    -0.80582003
Ti     -7.87888667     4.45752732    -3.75372649     0.83743254    -0.47200641    -0.68888376
Ti     -3.85167478     4.38021540    -7.74469091    -0.79620100    -1.11902944     0.68372574
Ti     -4.00040102     4.36692541    -3.78517989     0.62156556     1.04009425     0.40209874
Ti     -2.25001835     0.04882835    -2.08036084    -0.16977848    -0.63975691     0.01335341
Ni     -5.85370198     2.37549699    -7.98676306    -0.29242509    -0.31256115    -0.54974525
Ni     -5.82653471     2.21970121    -4.10252271    -0.74952555    -0.05048305     1.11551392
Ni     -9.76764989     6.45416330    -7.83426640    -0.00825109     0.57254197    -0.74935620
Ni     -9.80327653     6.37854692    -3.89746225    -0.22234055     0.87147510    -1.36096120
Ni     -1.86273931     2.21187162    -8.01624954    -0.39519626    -0.01175645     0.25655770
Ni     -5.76548937     6.61054488    -4.00938396    -0.29000601    -0.19907186     0.21068790
Ni     -1.96171916     0.02938976    -5.97487735    -0.79980944    -1.05702867    -0.37946408
Mo    -10.03506420     8.72246179   -10.26496752     0.02170150     0.46730627     0.46481854
Mo     -9.87192877     8.67185630    -6.40844460     1.91326489    -0.54545720    -0.22996741
O      -1.86807065     1.91232442    -1.93956218    -0.51935980    -0.03406303     0.13134917
O      -2.02808847     1.82758818    -5.96817786     0.58149259     1.14935364    -0.88475473
O      -5.85056785     6.84997045    -1.99718636    -0.21040919    -0.35632209    -0.83633067
O      -5.76345252     6.88949764    -6.03567205    -0.46704444    -0.01760483     1.28843950
O      -5.98396614     1.96046317   -10.17052676     0.70325930     0.14319410    -0.01861783
O      -5.88815905     1.89363105    -5.90014775     0.44182777     0.18770448    -0.88699070
O      -9.80053030     6.89725922    -9.80584155     0.39324940    -0.22885398     0.35292788
O      -9.80602249     6.72395763    -5.97837052     0.73964572     0.91181882    -0.02438694
O      -3.89213671     2.48248538    -3.92842895    -0.69360578    -1.34534509    -0.37804740
O      -3.82578713     2.48245208    -8.10235664    -0.17604737    -0.19475330     0.68861949
O      -7.70596153     2.46166494    -4.02302772    -1.14669840    -0.01709294     0.73203745
O      -7.90827425     2.34877436    -7.98654159     2.06164343     0.77348485    -0.03438919
O      -3.77491535     6.46309308    -4.07655579    -0.26898591    -1.15421143     1.14792121
O      -4.02298237     6.27866187    -7.98492440     1.16473907     0.66834173     0.07219713
O      -7.88370952     6.36337967    -4.04183998     0.40219339     0.06439639     1.08415063
O      -7.79660414     6.34856108    -7.89409060    -0.29119637    -0.97314505     0.25983036
O      -3.76081191     4.47615266    -2.03678178    -0.52326971    -0.04697656    -0.09038616
O      -3.85961048     4.34145724    -5.94310263     0.46458046     0.23065428    -0.88212570
O      -7.87319738     4.46907570    -9.98107341     0.06176819    -0.40130940     0.40842064
O      -7.69526704     4.17406806    -5.88450411    -0.26196644     0.55629374    -0.06657013
O      -7.97215195     8.74734888    -9.99644078     0.36196443     0.42723481    -0.15849845
O      -7.98481495     8.69103816    -6.09851584    -0.32932751     0.04005266     0.02369209
O     -11.60402506     8.66488277    -6.07856647    -0.50298033     0.06028794     0.15977353
O      -3.95924100     8.66112793    -6.08540486     0.59974831     0.38334804    -0.16353667
O      -1.90241011     4.09538287    -3.92328891     0.28807886     0.84653208    -0.35466979
O      -9.79689092     4.51078462    -4.08585672     0.62717985    -0.19304682     0.31136465
O      -5.82809094     4.63365752    -4.00307800    -1.08528438     0.19413807    -0.04673305
O      -5.87182049     4.26082811    -7.95148994     0.26747497     0.20398133    -0.35405269
O      -2.00395880     0.30221345    -3.98620803    -0.01782257    -1.64095620     0.38976791
O      -5.96251708     8.46784508    -8.00036724     0.29469058     1.73612814    -0.52112574
O      -9.79723627     8.59810331    -4.04616756    -0.18910913    -0.17353136    -0.01974013
O      -5.94063660     0.56349286    -8.21910039     0.17933023    -0.41755311     1.11779823
