# total energy = -630.34255082 eV

CRYSTAL
PRIMVEC
        0.00285542     0.02004370    -7.95977623
       -7.82940539     0.00763210    -3.98158109
       -3.91729101     8.74642787     0.01461334
PRIMCOORD
56 1
Li     -3.94657575     2.34640158    -1.95108892     0.48315415    -0.18538836    -0.17677592
Li     -4.06221813     2.01284099    -5.96461770     1.22419966     0.23984714    -0.11448112
Li     -7.76326885     2.57270005   -10.02075088    -0.10032557    -0.41330392     0.05768891
Li     -7.73759923     2.07264573    -5.98751930     0.08362663     0.27683814     0.67715146
Li     -3.71035130     6.45143927    -2.01155423    -1.65723487     0.05551791     0.71007535
Li     -3.94540154     6.34105909    -5.85316079    -0.13410966     0.40501877     0.10445808
Li     -7.86770176     6.43795074    -9.93865390    -0.14966346     0.09818816     0.26936353
Li     -7.86914671     6.67217845    -5.89333297     0.17157227    -0.23663017     0.06161604
Ti     -1.93095242     2.18033074    -4.14369120    -0.37268861     1.41839384    -0.59509632
Ti     -5.81048014     6.82100625    -8.01370971    -0.08703105    -1.01219456     1.41156782
Ti     -7.75903797     4.39304064    -7.61676766    -0.06270992     0.12063407    -1.14799916
Ti     -7.75407898     4.48033707    -3.80293181     0.05699728    -1.12507487    -0.35528744
Ti     -3.73231567     4.34620130    -7.64641629    -0.65817470    -0.18906860    -0.60349064
Ti     -3.89872474     4.44751882    -3.64323624     0.22446066    -1.59455114    -0.54356310
Ti     -2.11717222     0.02878387    -2.14217858    -1.77454667    -0.08344051     0.05349427
Ni     -5.88484557     2.22932451    -7.93200946     0.58627788     1.67507458    -1.07022134
Ni     -5.78353202     2.24771399    -3.90638978    -0.97822838     0.14396210    -1.21700634
Ni     -9.80263431     6.52740585    -7.88801992     0.43442805    -0.13951941     0.60371682
Ni     -9.85709619     6.47718403    -3.92780777     1.47628057     0.29099912    -0.33172553
Ni     -1.96285370     2.12034904    -8.07720598     1.03322056     0.00016841     0.95283722
Ni     -5.86234423     6.53114400    -3.99041559     0.01061936    -0.08617133     0.39041370
Ni     -6.01792058     8.73333860    -5.95730887     0.68649882     1.79874902    -0.50412276
Mo     -6.09264577     0.03416218   -10.18412591     0.70663993     0.55542167    -0.69245907
Mo     -9.83657978     8.65939817    -6.37367993     0.32650769     0.43009728     0.53866217
O      -1.79412889     1.89955653    -1.98903282    -0.94050443    -0.17886873    -0.39153876
O      -1.93618679     1.89240345    -6.13369638    -0.69887401    -0.00887212     0.66305395
O      -5.74165112     6.77726800    -1.85901480    -0.50054150     0.20187733    -2.30689780
O      -5.95228790     6.96788758    -5.84521908     0.22910082    -1.03322562    -0.23825518
O      -5.73209420     2.02138851    -9.97556180    -1.59094958    -0.93874550    -0.56638040
O      -5.79833289     1.87864549    -5.92257212    -1.21819171    -0.00301260     0.42022466
O      -9.80237541     6.95427018    -9.62775990    -0.30883201     0.40560340    -1.62038757
O      -9.84047683     6.79590378    -6.03733614     1.53695130    -0.66648712     0.66563609
O      -3.88149690     2.38978584    -4.00678632    -0.00561539     0.40544396     0.50059722
O      -3.88279653     2.46664358    -8.10080783     0.20123169    -0.04137684     1.45350615
O      -7.78526841     2.39109224    -4.03854784     0.20795717     0.70367179     0.52344458
O      -7.83603533     2.47192366    -7.95013377     0.28791115    -1.27829975    -0.39056073
O      -3.86282939     6.32054724    -3.93853805    -0.27650604     1.17273029    -0.02976411
O      -3.89831914     6.38576001    -7.79572117    -1.02815035     0.04409700    -0.30333413
O      -7.82970264     6.44010839    -3.94478648     0.13507781    -0.20788505     0.06781438
O      -7.84544859     6.29252067    -7.97509690     0.45651034     0.83935773     0.44450306
O      -3.95984026     4.58425829    -1.88989463     0.38738790    -0.60336063    -0.11464708
O      -3.93410774     4.50914880    -5.89189323     0.05908003    -0.69012976    -0.54462145
O      -8.03644727     4.45338646   -10.03043086     0.43303276    -0.04061727     0.61611720
O      -7.62906622     4.43120546    -5.90628225    -0.54190223     0.20242276     1.00929190
O      -3.95433459     0.03577907    -9.84282430     1.32017010     0.00810503    -1.04245342
O      -7.98410512     8.75403513    -6.21436826    -0.12562438    -0.47792677     0.68861177
O     -11.59319369     8.73199609    -5.88173530    -0.00288029     0.01227752    -0.99360136
O      -7.83179388     0.18019364    -9.96804542     0.73066069    -0.43727422    -0.28408660
O      -1.94230018     4.10532386    -3.87814896    -0.24886561     0.22019695    -0.05452318
O      -9.70816615     4.53496667    -4.05811178    -1.40637542     0.55633400    -0.12118495
O      -5.82400680     4.34571102    -3.88551255     0.09962342    -0.09467641    -0.21688611
O      -5.93669550     4.21820284    -8.09353922     1.23876341    -0.34467941     0.54402947
O      -2.04399356     0.30198092    -4.11218542     0.20787676    -1.06944120     1.46260763
O      -5.89594586     8.60726572    -8.02733800     0.34510653    -0.10829341     0.47426912
O      -9.81006876     8.42051362    -4.00524414     0.13476329    -0.06433239     0.73011019
O      -5.89150209     0.39443828    -8.15367925    -0.49267557     0.85766829     0.44603788
