# total energy = -630.68150902 eV

CRYSTAL
PRIMVEC
        0.00279571     0.02951795    -7.98606283
       -7.83802570     0.01298533    -3.99532603
       -3.92160916     8.71933433     0.00634407
PRIMCOORD
56 1
Li     -4.03081383     2.17821639    -1.85393646     0.27583954     0.10192179    -0.22510174
Li     -4.01028235     2.40092366    -5.91680692     0.14155458    -0.10468069    -0.46954330
Li     -7.86502873     1.92379937    -9.91940948     0.29959561     0.32590158    -0.02014933
Li     -7.85909059     2.56132071    -5.82766109    -0.02828099    -1.14195641    -0.28115391
Li     -3.87763495     6.61602669    -2.07797436    -0.19932863     0.02467227     0.30383715
Li     -3.92436215     6.65540901    -5.88629834    -0.00743806    -0.46357834    -0.28527171
Li     -7.79097357     6.34851176    -9.99688933    -0.46793297     0.05093623     0.45281554
Li     -7.92553589     6.13890724    -5.91837620    -0.08575391     1.34675792     0.40487833
Ti     -2.02010975     2.41269507    -4.03981478     0.84471719    -0.21950848     0.01764170
Ti     -5.82727866     6.63027469    -7.97429659    -0.72203035     1.39777640     0.09455330
Ti     -7.73013948     4.43966689    -7.69376395    -0.14948274     0.32323175    -0.94662236
Ti     -7.94430390     4.28236182    -3.71482837    -0.50234714    -0.11737302     1.19891664
Ti     -3.84681195     4.43764044    -7.84780457     0.82698816    -1.08898002     1.39256511
Ti     -4.03001445     4.46443532    -3.73832698    -1.52237954     1.77178259     0.95769622
Ti     -1.89817771     0.01025759    -2.25722083     0.94785576    -0.28871173     0.13716126
Ni     -5.79814139     2.15393664    -7.95033559    -1.12882387    -0.51658416     0.17561235
Ni     -5.93232457     2.34773534    -3.97224473    -0.54603648     0.45461083     0.10692941
Ni     -9.86650820     6.44243226    -8.01393470    -0.10561886    -0.42574561    -0.14045256
Ni     -9.79389946     6.72468423    -3.95947985    -0.88371357    -0.28371741    -0.33169451
Ni     -1.96325072     1.91117244    -8.03506437    -0.30479143     1.12100036     0.77712750
Ni     -6.10432462     6.58332624    -4.02240459     0.97950483     0.13460858    -0.07648469
Ni     -5.82734533     8.67451106    -5.97633120    -0.45596859     0.18894487     0.25449339
Mo     -9.75257714     8.68234585   -10.32037691    -0.23985401     0.33879964     0.23714204
Mo     -5.80385547     0.06680087    -6.30606003    -0.11822474     0.98852348     0.66501244
O      -2.00944792     1.90727243    -2.13888975    -0.15731149     0.54325432     0.01171844
O      -1.93458450     1.81587609    -5.89339061    -0.22964360     0.08345080     0.46134924
O      -5.96530333     6.82775413    -1.94877443    -0.03253364    -0.00430864    -0.41947170
O      -5.93809641     6.84403685    -5.98886041    -0.19417603    -0.01442329    -0.06048198
O      -5.94167017     1.87705842    -9.78632778     0.29770803     0.16687626    -0.23445306
O      -5.96421026     2.06974545    -6.13676594     0.53085242    -0.97994591     1.04422299
O      -9.70153891     6.80166356   -10.02534555    -0.46384557    -0.75408682    -0.50493706
O      -9.76675070     6.79980333    -5.86356479    -0.77079726     0.85886608     0.21481255
O      -3.95338304     2.59458725    -3.97181349     0.16731409    -1.64175983    -0.70701845
O      -3.96212915     2.23638229    -7.89815683     0.02220797     1.38553791    -0.15067959
O      -7.87797271     2.29527460    -3.88196261     0.69949122     0.39283785    -0.45203468
O      -7.81671786     2.57792098    -7.90185207    -0.83545448    -1.17045456    -0.55049807
O      -4.04450965     6.39602290    -4.07163376     0.26475248    -0.70086057     1.18945361
O      -3.94711583     6.42579869    -8.04517663     0.91953648     0.13006133     0.32976562
O      -8.03267036     6.37108135    -3.96435677     1.55654017    -1.13108109    -0.05259596
O      -7.98216558     6.42325692    -7.94476662     1.15551962    -1.46194042     0.24046242
O      -3.89999524     4.40278018    -1.96200086    -0.07266841     0.29577042    -0.21268664
O      -3.83484935     4.59677768    -6.03460544    -0.08552948    -0.92586029    -1.44111195
O      -7.92677840     4.33898116    -9.93269582    -0.06092208     0.53188145    -0.30184386
O      -7.62308983     4.35396135    -5.91350802    -0.53730591     0.47551602    -0.49524047
O      -4.02754479     0.07893668    -2.10260866     0.44650785    -0.23524912     0.35601222
O      -4.08081092     0.12425877    -5.96377784    -0.61247761     0.04474009    -0.29051992
O      -0.02686626     0.05562658    -1.99867075     0.68491276    -0.48013421    -0.50409951
O     -11.56605339     8.54690477    -9.95120380    -0.35867339     1.05273903    -0.13644119
O      -2.01880162     4.39098172    -3.88805383     0.85314669    -0.47140352    -0.49128697
O      -1.96610591     3.86261376    -8.10608001    -0.57280508    -0.04114319     0.01749904
O      -5.99270862     4.31871733    -3.88402658     0.82019813    -0.50357742    -0.36161757
O      -5.86174242     4.72199119    -8.10788706     0.01450549    -0.02901209     0.38469374
O      -2.02193555     0.09148964    -4.06459599    -0.00144786     0.38377691    -0.58071628
O      -5.83887769     8.65084983    -7.88060892    -0.12986851     0.05261242    -0.01830571
O      -5.91304273     0.49657223    -4.07147490    -0.00644318    -0.26851846    -0.72028827
O      -9.79984064     8.25255890    -8.03056580    -0.08581126     0.14058317    -0.11537344
