# total energy = -630.30563561 eV

CRYSTAL
PRIMVEC
        0.00279571     0.02951795    -7.98606283
       -7.83802570     0.01298533    -3.99532603
       -3.92160916     8.71933433     0.00634407
PRIMCOORD
56 1
Li     -3.77540870     2.19856883    -2.01590413    -0.60299695     0.29406976     0.36278723
Li     -3.94346952     2.05146288    -6.08213700    -0.25257124    -0.08170543     0.58162855
Li     -7.91764892     2.56673877   -10.05421206     0.25208778    -0.65534817     0.38455975
Li     -7.74818387     2.09437982    -5.89547402    -0.45637903     0.31289263    -0.22827479
Li     -3.92154694     6.39892960    -1.88432243    -0.00625845    -0.12622713    -0.22621392
Li     -3.90447718     6.40867366    -5.87224231     0.09380988     0.15672715     0.09617996
Li     -7.86228791     6.48611523    -9.77478999     0.19871236    -0.27880014    -1.04351297
Li     -7.77985589     6.77001858    -5.75647298    -0.39662311    -0.04683792    -0.65801310
Ti     -2.01341637     2.22311931    -4.05793018     1.49458861     0.43552812     0.17007900
Ti     -5.80831126     6.74058722    -7.90026785     0.25874519    -0.14704383    -0.73678790
Ti     -7.89562828     4.42634911    -7.67963208     0.90996764    -0.90403218     0.15572119
Ti     -7.62731982     4.37972309    -3.82838393    -1.29074483     0.05315595     0.10514391
Ti     -3.94996416     4.30214385    -7.68471454     0.52988608     0.75885846     1.15227640
Ti     -3.96616931     4.46341017    -3.80058004     0.81916994    -0.87119328     1.18006429
Ti     -6.07572438     8.67832405    -2.19353760     0.62072258    -1.02839472     1.14920295
Ni     -5.74709779     2.40285084    -8.14325648    -2.63416739    -0.54115067     0.70187907
Ni     -5.79745090     2.20952924    -4.11760982    -0.72159736    -0.28693226     0.34077941
Ni     -9.76841908     6.50720034    -7.82191681    -0.00874282     0.07707788     0.07119706
Ni     -9.86427422     6.24680757    -3.85086287     1.13488169     0.06907364    -1.17060298
Ni     -2.03629748     2.20621411    -7.91297332     1.49484587     0.64167869    -0.93314675
Ni     -5.83640586     6.60155711    -3.99914835    -0.36165759    -0.01471193     0.63916377
Ni     -2.04159040     0.02358702    -5.98768523     0.33764351     0.85135135     0.14671415
Mo     -5.97287287     0.07060453   -10.22339235    -1.29079652     0.60677648    -1.13505912
Mo     -9.86453729     8.62521570    -6.34740246     1.00761800     0.90217437    -0.48649044
O      -1.82772842     1.81819757    -1.91177865    -1.05076541     0.37957520    -0.53405685
O      -2.01878872     1.88856732    -5.96739426     0.30026365    -0.29742992    -0.69043157
O      -5.82582375     6.66393008    -2.04545758    -0.45744300     1.26635173     0.45915799
O      -5.87563798     6.95694816    -5.87569777     0.12006849    -1.00915091    -0.56836483
O      -5.83425745     2.10344509   -10.09693494     0.28644516    -0.42652465    -0.58724700
O      -5.87396288     1.90302293    -6.06959243     0.09885592     0.42858483     0.68714035
O      -9.73925285     6.96036836    -9.84076261    -0.23829505    -0.80473175     0.47831720
O      -9.82323577     6.80290882    -5.75910822    -0.03174082    -0.41892730    -1.13680677
O      -3.83299612     2.38099574    -4.01997431    -1.48069618     0.33370017     0.25466159
O      -3.92707701     2.39444224    -7.93757658     0.77353325    -0.06251091    -0.57863543
O      -7.93693019     2.50355014    -3.98932047     0.64337087    -1.32008796    -0.11311299
O      -7.87095035     2.47674834    -7.94068363     0.33808778    -0.01949615    -0.79804964
O      -3.84907591     6.37171811    -3.94158594     0.59872866     0.70609003    -0.13037275
O      -3.91287013     6.39894995    -7.88890100    -0.15649482    -0.89317898     0.38868145
O      -7.91877899     6.24957690    -4.06029074    -0.47498957     0.82267710     1.27396741
O      -7.68023934     6.37162428    -7.94732453    -1.46414007    -0.16033389     0.77996401
O      -4.00932843     4.38962145    -2.01913158     0.26063464    -0.26118896    -0.37324866
O      -3.86363567     4.35319308    -5.87430279    -0.08759932     0.25640033    -1.59719179
O      -7.92694970     4.39465949   -10.06331171     0.06346410     0.63896697     0.75513872
O      -7.86806187     4.34253725    -5.94170236    -0.31023708     0.28442765    -0.52028766
O      -7.87215697     8.72335668    -2.09533548    -0.65388627     0.09704487     0.27116057
O      -4.09146609     0.02533829    -6.05095281     0.16187435    -0.53106563    -0.43581557
O     -11.65511877     8.65758254    -6.28692578    -0.04931700     0.00425917     0.46830927
O      -7.75704436     0.03757981   -10.20185616     0.38584317     0.09797924     0.90934342
O      -1.99701917     4.21665804    -4.03408726     0.87690232    -0.13363931     0.28094786
O      -2.11461593     4.22985214    -0.12255683     1.46251801     0.40363207     0.19839070
O      -5.80798004     4.60770735    -4.13299110    -0.56308231    -0.51277450    -0.12860489
O      -5.82645153     4.35649674    -7.92029137    -1.37110116    -0.22576607    -0.46881854
O      -2.17985437     0.21408405    -4.00961772     1.08556122     0.10028772    -1.13800182
O      -5.85947460     8.51320181    -8.07399108    -0.04198830     0.53327054     0.24705665
O      -5.88494687     0.20502210    -4.09217860     0.14572473     0.62577180     0.40252661
O      -5.76710490     0.52922031    -8.23217175    -0.42854449     0.21549274     1.11737697
