# total energy = -630.49089144 eV

CRYSTAL
PRIMVEC
        0.00279571     0.02951795    -7.98606283
       -7.83802570     0.01298533    -3.99532603
       -3.92160916     8.71933433     0.00634407
PRIMCOORD
56 1
Li     -4.09711460     2.15993454    -1.83635009     0.68452727     0.41957957    -0.31465720
Li     -3.95675734     2.50905839    -6.06254419     0.09807983    -0.69636805     0.64878138
Li     -7.81123699     2.36986575   -10.03307362    -0.09134567     0.27262166     0.00926480
Li     -7.97175274     2.13325044    -5.90781597     0.76342793     0.12383481     0.00406642
Li     -3.78031372     6.70983481    -1.89953361    -0.63678345    -0.24706729    -0.47063390
Li     -4.00859892     6.39809652    -5.97530780     0.41194041     0.00538860     0.23338175
Li     -7.76526333     6.19685418   -10.00111883    -0.66471784     0.33736123    -0.14640247
Li     -7.81308338     6.75613681    -5.93251266    -0.28609615     0.02896712     0.06068939
Ti     -1.93527510     2.08588065    -4.00122074    -1.02334844    -0.22453420    -0.81364559
Ti     -5.92304007     6.59638772    -8.06889791     0.36486054    -0.46566132     0.57600216
Ti     -7.80916124     4.37136165    -7.65647441     0.34464185     0.30509352    -1.61570416
Ti     -7.80872114     4.34464172    -3.86797543     0.08557594    -0.06154461     0.28102217
Ti     -3.72614336     4.41901084    -7.70436838     0.00457079    -0.24413374    -2.19273486
Ti     -3.88513087     4.38176512    -3.64543309    -1.36325511    -0.04104613     0.13398509
Ti     -2.27693836     0.11029810    -1.94232659    -1.94319211    -0.19262504     0.40084786
Ni     -5.85655857     2.25275529    -7.95952186    -0.06790281     0.02620948    -0.02505253
Ni     -5.94797352     2.28070372    -4.03973532     2.47818798     0.21392591    -0.28522499
Ni     -9.88977825     6.31921550    -8.03891692     0.60453766     0.98740826     0.09048822
Ni     -9.80269702     6.65860378    -4.01306716     0.40875425     0.20992943    -0.04043051
Ni     -1.96128974     2.03152239    -7.93707007     0.19849678     0.45547280    -0.44071374
Ni     -5.89068360     6.55218434    -4.14474389    -0.55762922    -0.42633152     1.29011074
Ni     -1.91118256     0.02266230    -6.05701917    -0.52455396    -0.20434605     0.84913323
Mo     -6.06178671     0.08545111   -10.14963702     1.11838651    -0.36204157    -0.87560579
Mo     -5.75265985     0.12260665    -6.40915754     1.28485527    -0.25797498    -0.24559805
O      -2.07843592     1.95340855    -2.00100268     1.19786321     1.62521732    -0.07043202
O      -1.86916297     1.84117555    -6.06870174    -0.06825332     0.62187938     0.90826571
O      -6.00205863     6.97515393    -1.96262841     0.83299610    -1.87831577    -0.50940005
O      -5.84890624     6.81652884    -5.95780393    -0.48646698     1.23213207    -1.09816176
O      -5.90309809     2.01190948    -9.91215760    -0.84267665    -0.42820397     0.51929027
O      -5.84444109     2.00332895    -6.06469882     0.34037863     0.35960926     0.22836730
O      -9.77009531     6.80959919   -10.10386431    -0.07378064     0.09695150    -0.44230752
O      -9.79413326     6.84473558    -5.87006969     1.01527426     0.47763423    -0.38305069
O      -3.88864724     2.46162934    -4.07609813     0.34234502    -0.05190757     0.60099893
O      -4.04062716     2.51206072    -7.97846983    -0.13396143    -0.68968725     0.07808945
O      -7.71964048     2.32411122    -4.04369204    -1.44408868    -0.15008087     0.30515322
O      -7.74902006     2.40362411    -8.05044924    -1.53549725    -0.03606978     0.65834268
O      -4.02052522     6.29183912    -3.95033021     0.66883408     0.54904808    -0.42492672
O      -3.87781053     6.31091890    -8.01158454    -0.37369525     1.61213439     0.48207903
O      -7.90769572     6.28676680    -4.05070363     0.63132891     0.18753437     0.08661016
O      -7.88754387     6.33367210    -8.03241320    -0.04429225    -0.33293419     0.58118112
O      -4.03043067     4.55253929    -1.91337321     0.07622488    -0.83983822     0.02138484
O      -4.08348419     4.38285304    -6.00860857     0.54444322     0.56322642     1.04266945
O      -7.72710560     4.29290582   -10.09300289    -0.34696701     0.21207062     0.73136701
O      -7.74171250     4.15189668    -5.96737461    -0.10141822     0.15077184     0.76330759
O      -4.08491564     0.25411076    -9.76612038     0.30599722    -0.61467053    -0.53539970
O      -3.84961447     0.13100414    -6.06173989    -1.50044251    -0.64420851    -0.54900040
O      -7.45253210     0.12004138    -6.00831047    -1.87751694    -0.19645172     0.17217543
O      -3.90682319     8.65428503    -6.05898081    -0.54071505     0.49742894     0.16861072
O      -1.95609122     4.30647786    -3.84705624     0.51949079     0.19923200    -0.74055248
O      -1.91484631     3.91221136    -7.94875859     0.08151221     0.10672433    -0.03582856
O      -5.85915624     4.29338040    -4.06321485    -0.16673095    -0.58474136    -0.03129359
O      -5.90156843     4.74848112    -7.99177990    -0.00332306    -0.09061499    -0.03603611
O      -2.18997909     0.27276088    -3.86108887     1.04578591    -0.20417309    -0.75281032
O      -5.85548222     8.72887760    -8.03695265     0.39805633    -0.30658496    -0.21151581
O      -5.75821848     0.20402463    -3.94705895    -0.17556370    -0.12969758     0.06840596
O      -9.85787090     8.24653640    -8.16945614     0.04120757    -0.87406855     1.14960570
