# total energy = -630.91865418 eV

CRYSTAL
PRIMVEC
        0.00279571     0.02951795    -7.98606283
       -7.83802570     0.01298533    -3.99532603
       -3.92160916     8.71933433     0.00634407
PRIMCOORD
56 1
Li     -3.83066037     2.31457800    -1.96745256    -0.29983048     0.31128301     0.00838341
Li     -3.85046355     2.02671412    -6.05502060    -0.20780964     0.31405668     0.59894478
Li     -7.74388412     2.30047813    -9.89778155    -0.34685073     0.14442148    -0.44168288
Li     -7.82064485     2.26181731    -5.94142766    -0.11061644     0.18840193     0.17256290
Li     -3.90258495     6.65699466    -2.04802941     0.02707857    -0.39670046     0.03379419
Li     -3.84913737     6.80204027    -5.97387603    -0.23284103    -0.36063489     0.31054267
Li     -7.91928252     6.11208573    -9.97764428     0.23811446     0.93068861     0.24832446
Li     -7.83862470     6.70589838    -5.95365970    -0.21804194    -0.31143431    -0.06755953
Ti     -1.97230281     1.90210560    -3.98474601    -0.83712539     1.52217460    -0.96115593
Ti     -5.88618418     6.41081420    -8.01501109    -0.13851190    -0.23777581    -0.27416481
Ti     -8.00508784     4.26457811    -7.77743390    -0.71358723     1.01294284     0.70771575
Ti     -7.88996855     4.42103951    -3.80142370     0.43069049    -2.18709958    -0.34172027
Ti     -3.80275516     4.36415581    -7.65622127     0.51200779     0.08172722     0.75703580
Ti     -4.01596506     4.43407999    -3.78734836     0.09536548    -0.64187806     0.11894427
Ti     -2.16508976     0.01382600    -1.72606431     1.02214415    -0.57421391    -1.14233558
Ni     -5.76658148     2.52853854    -7.97662500    -0.74042788    -0.41134027    -0.50884873
Ni     -5.89311253     1.98493284    -4.02345512    -0.07500416     0.29630860     1.12806535
Ni     -9.79895011     6.49688936    -8.07055908     0.31806027     0.63826670     1.09662869
Ni     -9.80652173     6.56079856    -4.02284538     0.20622141    -1.00699266    -0.39263221
Ni     -1.89049007     2.09981091    -7.91687925     1.03889221     0.19058758     0.07364764
Ni     -5.97695048     6.64377358    -4.07456023     0.75910627    -0.05012589     1.11963260
Ni     -5.89315383     8.70929524    -5.99367793     0.59154175     0.18755695     0.15352552
Mo     -5.85862856     0.14545749   -10.22891811    -1.15540971     0.90310458    -1.41866995
Mo     -5.93443705     0.07322895    -6.42086075     0.06841546    -0.76004241     0.41230435
O      -1.88323139     1.91759361    -2.05444402    -0.02943682    -0.63229977     1.30784896
O      -1.78336768     1.81460658    -5.98711518    -0.97707654    -0.00994143    -0.68021311
O      -6.04484684     6.78158832    -1.97031827     0.78347530     0.84652949     0.25742759
O      -5.93365852     6.87666537    -5.96849937     0.34915129    -0.02931347    -0.84243580
O      -5.90395630     2.10616677   -10.09723454     1.39238716    -0.40175314    -0.36949769
O      -5.97320001     2.00325191    -5.82690882     0.80264202    -0.73175764    -0.62051383
O      -9.63272307     6.91350080    -9.93460906    -1.08839051     0.09009140     0.61838980
O      -9.70437650     6.85804005    -6.12331446    -0.83645691     0.01201950    -0.32258495
O      -3.90885989     2.26267114    -4.03729276    -0.40623579     0.13896903     0.29829874
O      -3.76918879     2.42392866    -7.91430986    -0.54878205     0.73998195    -0.49896990
O      -7.80751464     2.37168316    -3.99750247    -0.16432159     0.42244712    -0.16001743
O      -7.71913493     2.40245578    -7.95483184    -0.06063830     0.20544556     0.15164223
O      -3.91276229     6.37460527    -3.94070413     0.80422016     0.22270793    -0.97238162
O      -3.93145209     6.33055688    -8.11071333    -0.59467320     0.53861630     1.10179533
O      -7.91292841     6.33422901    -3.95077410     0.18743633     1.13062074    -0.35526437
O      -7.81074325     6.31811363    -8.07353590    -0.62386244    -0.51042357     0.60319145
O      -3.86480208     4.44042746    -2.04549311    -0.03879185    -0.72631833     0.19203561
O      -3.88693001     4.37443075    -5.88197074    -0.09598520     0.16386062    -1.09900943
O      -8.00542459     4.28296526   -10.02282500     0.42724115     0.03264377     0.65079232
O      -7.98225733     4.46964668    -6.01993787     0.35866134    -0.35801674    -0.24288601
O      -3.93826191     0.17463029    -2.06820351    -0.40877998     0.23641473     0.64330796
O      -4.14766262     0.10560644    -6.12207626     0.65906129    -0.21489471     0.14020224
O     -11.64702202     8.61903808    -6.06866174    -0.37999102     0.57160489     0.17631294
O      -7.64032108     0.13054004   -10.01469078     0.27587507    -0.84331798    -0.09122917
O      -2.02272033     3.89241317    -3.95728659     0.47735305     0.59912361    -0.43249190
O      -9.80501223     4.73663711   -11.86675603    -0.18928845    -0.08724886    -0.74986688
O      -5.97048825     4.78049861    -3.90555702     0.29100977    -0.18024682    -0.68694109
O      -5.79762693     4.45885113    -7.99959086    -0.48764853     0.01989008     0.11607411
O      -1.92462939     0.03897320    -4.06171461    -0.36724689    -0.83590096     0.15225367
O      -5.91070075     8.53029383    -7.91785931     0.06505685    -0.72128014     0.27103924
O      -9.73665095     8.37934499    -4.04098823    -0.17626305     0.60678870     0.24494305
O      -5.91915803     0.69093355    -8.12777254     0.62515255    -0.06457000    -0.15170660
