# total energy = -630.60920367 eV

CRYSTAL
PRIMVEC
        0.00285542     0.02004370    -7.95977623
       -7.82940539     0.00763210    -3.98158109
       -3.91729101     8.74642787     0.01461334
PRIMCOORD
56 1
Li     -3.96676378     2.23471414    -1.97865757     0.09420614    -0.22086285     0.18763504
Li     -3.84114814     2.35832984    -5.97439772    -1.01751113    -0.17382716     0.04136761
Li     -7.90057491     1.93524248    -9.92606791     0.27903294     0.17809430    -0.36722781
Li     -7.79491206     2.45427641    -5.74733524     0.05829780    -0.35427142    -0.96453595
Li     -3.94047520     6.37897998    -1.95898642     0.13946507    -0.07704879     0.15021574
Li     -3.88492663     6.34893732    -5.72391479    -0.04798308     0.42653529    -1.02739571
Li     -7.78923596     6.44998633   -10.02182500    -0.34416762     0.59855811     0.65850056
Li     -7.77664830     6.34051315    -5.97348582     0.15969010     0.01921874     0.20834260
Ti     -2.00528353     2.33371600    -3.95861662     0.26389984    -0.01132547    -0.49375854
Ti     -5.77298514     6.84414678    -8.02787719    -0.84636777    -0.11965497     1.31695450
Ti     -7.75690829     4.36647091    -7.84881005     0.82317363     0.49917368     0.17827119
Ti     -7.83277035     4.35688156    -3.66003915    -0.48635236     1.09954800    -0.40814146
Ti     -3.80591127     4.26026479    -7.81432371    -0.64150744     0.48334007     0.26940034
Ti     -4.10224108     4.42993404    -3.79219181     0.63991614    -0.47048128     1.35867545
Ti     -1.84783245     0.10114458    -2.06179758    -0.85108182    -0.25245902    -0.85341010
Ni     -5.90720860     2.27442361    -8.11238623     0.16105262    -0.77030519     0.56007845
Ni     -5.91584543     2.29855060    -4.05860234     0.28971214    -1.00818201     0.12364442
Ni     -9.75454080     6.28837619    -7.70786820    -0.12150802     0.01405117    -1.47776892
Ni     -9.70580555     6.49785352    -3.99114461    -0.84044131    -0.75627434     0.51194489
Ni     -2.01918289     2.19768870    -7.90860696     0.48799329     0.04482322    -0.55771630
Ni     -5.93046771     6.65689685    -3.92123228     0.29732695     0.52496733    -1.20924596
Ni     -2.10107812     0.07625803    -5.88446130     0.58130166    -0.40739113    -0.31417652
Mo     -9.82070736     8.67439798   -10.20392930     1.55197860    -1.24819193     0.75759190
Mo     -9.78636877     8.63846012    -6.19857548     0.09129240     1.94235267    -2.05940870
O      -1.96597065     1.96104510    -1.96224262     0.04129580     1.44111996     0.17547036
O      -2.01317187     1.99817648    -6.04239133    -0.02893682    -1.28509408     1.00566721
O      -5.88024603     6.87764673    -2.02289888     0.41343288    -0.72390438     0.58484424
O      -5.93884582     6.95345096    -5.83145964     0.28223324     0.16775670     0.07523595
O      -5.81718246     2.02153759   -10.08174754    -0.96202191    -0.18552193     0.81685412
O      -5.85234879     1.92344104    -5.97477446    -0.33592978     0.63961687    -0.46719274
O      -9.75065644     6.74072562    -9.97786232     0.14958167     1.42203708    -0.05132635
O      -9.80168179     6.76275123    -5.91657465    -0.19493244    -0.33004068     0.81517258
O      -3.95419764     2.41533507    -3.93300867     0.53109623     0.23050816    -0.69294108
O      -3.94289988     2.32921543    -7.96292225     0.22744728     0.66302632    -0.02558153
O      -7.89729181     2.50020165    -3.91537467    -0.20560460    -1.54963319     0.08963211
O      -7.87062718     2.44079072    -8.08265927    -0.03378467    -0.19034313     0.27137449
O      -3.96800497     6.34839753    -3.88308352     0.38320439    -0.35924541     0.13728536
O      -3.91944388     6.50791444    -7.91201892    -0.09446125    -1.03599017    -0.45181134
O      -7.81048269     6.35889941    -4.06343397    -0.07547612    -0.35229310     0.66735978
O      -7.73334969     6.37203792    -7.93749851     0.20854514    -0.44535416     0.11818569
O      -3.88108994     4.36674266    -1.95935723    -0.13448310     0.40974729    -1.85385629
O      -3.88517003     4.39560898    -6.04628839    -0.27423756     0.12673248     0.48642429
O      -7.96743997     4.53416543    -9.88805847     0.61791723     0.07827472     0.01585222
O      -7.96834117     4.34164192    -6.09043619     0.07405786     0.31398716    -0.08343600
O      -3.90723837     0.03411059    -9.92873762    -1.29775457    -0.20705392    -0.58698934
O      -8.00752563     8.74365944    -6.00685709     0.11248279    -0.13344581    -0.01929583
O      -7.72933826     0.13323435    -5.96095119    -0.14801235    -0.91657947     0.47189125
O     -11.59559888     8.67651607   -10.05257209    -0.34184823     0.33433137     0.12834341
O      -2.03255579     4.24651221    -4.22999094    -0.20871412    -0.04826032     1.29431403
O      -9.72041570     4.47830628    -4.01098295    -0.90503399     0.10477954    -0.40718559
O      -5.97775011     4.17022340    -4.12447539     1.16971155     0.38544112     0.17775744
O      -5.79715435     4.19385153    -8.07663208    -0.69651335     0.11929999     0.10656078
O      -1.76967876     0.35155970    -3.92786689    -0.85831209     0.03561209    -0.73374531
O      -5.92164358     8.64620102    -7.96086589     0.33664031    -0.12379313     0.17119003
O      -5.90164022     0.41744213    -4.02224740     0.33219788    -0.23082385    -0.51019492
O      -6.08102917     0.29693470    -8.12876798     1.11302349     1.53486519     1.54246692
