# total energy = -630.42812502 eV

CRYSTAL
PRIMVEC
        0.00279571     0.02951795    -7.98606283
       -7.83802570     0.01298533    -3.99532603
       -3.92160916     8.71933433     0.00634407
PRIMCOORD
56 1
Li     -3.98252670     2.22670805    -2.08326766    -0.16147834     0.11101193     0.72104549
Li     -3.85651973     2.22338562    -5.91174872    -0.61260528     0.17028905    -0.58636109
Li     -7.75852322     2.12491308    -9.95096218    -0.53646845     0.27432745    -0.17572800
Li     -7.96594947     2.06433952    -5.94140196     0.83662722     0.76386335     0.24665002
Li     -3.91903434     6.47957480    -2.16782398    -0.20889339    -0.12082859     1.29599134
Li     -3.83554698     6.61323843    -5.90613450    -0.36312549    -0.22700457     0.30103225
Li     -7.88418256     6.75624801    -9.94007305     0.49799019    -0.55892423    -0.09707497
Li     -7.88014064     6.27117810    -5.96556039     0.00112624     0.29694004     0.16437656
Ti     -2.00766466     2.19980616    -3.94262940    -0.52662423     0.79713066    -0.48546710
Ti     -5.74996321     6.71177818    -7.83447695    -1.70349168    -0.10252337    -2.87321635
Ti     -7.82497056     4.38506439    -7.81035301    -0.06923759     0.29481920    -0.67273200
Ti     -7.93920413     4.27903112    -3.76389619     0.85376836     0.07512452     1.47414679
Ti     -3.97763503     4.37428939    -7.73918280     0.08437263    -1.03916510    -0.61220709
Ti     -4.12679208     4.40879694    -3.80336757     0.87060724    -0.67389224     0.39758453
Ti     -1.65844693     0.03919780    -2.06054060    -0.16341724    -1.12123936     0.08217412
Ni     -5.99979132     2.13240509    -7.99080548     1.62541959    -0.40999932    -0.64153465
Ni     -5.96902152     2.20719376    -4.00714980     0.91030622    -0.69459404    -0.42773182
Ni     -9.81532484     6.49502292    -7.98456643    -0.03160504     0.53155840    -0.05802772
Ni     -9.84622385     6.50856601    -4.02698807     0.58580074    -0.62141176     0.61673370
Ni     -2.04249429     2.28824796    -7.85312682     0.31831648    -0.74146817    -0.72805151
Ni     -5.95133756     6.67256066    -4.05447798    -0.45501687    -0.01361669     0.90972441
Ni     -1.87173255     0.05688170    -6.00320929    -0.42882879     0.31398519    -0.09629323
Mo     -9.80512319     8.71084196   -10.31256367    -0.36247433     0.39591565     0.75351625
Mo     -5.67761486     0.03005575    -6.28744417    -0.14184087     0.00894745    -0.97239793
O      -2.09841940     1.91850606    -1.91225972     0.77266230     0.15756912    -0.66760466
O      -2.03564962     1.83355562    -5.92478325     0.83883561     0.89786668    -1.02596601
O      -5.93496704     6.89444561    -1.97360949     0.29883197    -0.10673352    -1.10235085
O      -5.83153403     6.94223828    -6.01576141    -0.28305386    -0.53509543     1.77567467
O      -5.88583062     1.95240287    -9.90612187    -0.19413788    -0.11650676     0.24161327
O      -5.90232297     1.94977487    -6.09466659     0.00375854     0.02231282     0.73911964
O      -9.80832232     6.84510707    -9.95210167    -0.41856442    -0.76516834    -0.08374497
O      -9.87024588     6.88201358    -5.90633770     0.79027067    -0.28095689    -0.28558715
O      -3.96188827     2.27343792    -4.08291980    -0.42778077     0.96616206     0.99354878
O      -3.96705220     2.40073851    -8.01911688    -0.35427329     1.00937095     0.76954275
O      -7.86315632     2.32433683    -3.99646672    -0.94869106     0.22806191    -0.07848149
O      -7.90988589     2.36218244    -8.02597016     0.41215783     0.21753139     0.85487572
O      -4.09219684     6.33047221    -3.92669494     1.12517730     0.42144607    -1.18369601
O      -3.91670205     6.45034376    -7.98069296     0.64146503    -0.03842720     0.10255542
O      -7.90581682     6.20285326    -4.01301143     0.37671194     1.64333752    -0.21526810
O      -7.81959540     6.36391084    -8.03789867    -0.74209615    -0.47396998     0.87701474
O      -3.98872223     4.39183582    -2.04151317     0.46488778     0.12967462    -0.03024649
O      -3.95422016     4.51157604    -5.99289600     0.24703004    -0.19161643     0.31243861
O      -7.80525793     4.27092333    -9.97827316    -0.01481116    -0.02498021    -0.14344924
O      -7.83797926     4.38731499    -6.04905289     0.14044692    -0.37633932    -0.12987178
O      -8.04451947     8.69774973   -10.08036756     0.31196717     0.36824018    -0.07172202
O      -3.90070281     0.06262203    -6.17616955    -0.42956050    -0.29029782     0.62907368
O      -7.64272073     0.08707021    -6.02088248    -1.53163928    -0.09164541    -0.15424697
O      -7.76397108     0.10625325    -9.99539201    -0.00720879    -0.60382860    -0.24832545
O      -2.02457669     4.10840411    -3.96609486     0.22046259     0.45613065    -0.31416992
O      -9.80107036     4.48843280   -11.89384982    -1.36564811    -0.48190959    -0.66432395
O      -5.92061794     4.03773294    -4.00918954    -0.99940410     0.25673972    -0.45888088
O      -5.83908345     4.64379927    -8.03760785    -0.53026485     0.62701071     0.30740172
O      -1.92482011     0.24084671    -3.97270877    -0.17054193    -0.39296938     0.50309740
O      -5.94515102     8.64933938    -8.11658391     0.45955946    -0.73268171     0.92639540
O      -5.95775762     0.31605042    -4.08762324     0.35743810     0.09502557    -1.55435029
O      -9.83903874     8.70085397    -8.08732516     0.11319076    -0.12311107     0.85329332
