# total energy = -630.82065732 eV

CRYSTAL
PRIMVEC
        0.00279571     0.02951795    -7.98606283
       -7.83802570     0.01298533    -3.99532603
       -3.92160916     8.71933433     0.00634407
PRIMCOORD
56 1
Li     -4.03110113     2.18717321    -1.83238685     0.18115090     0.32520314    -0.09655818
Li     -3.96941260     2.28581806    -5.98609664     0.18148870     0.05206077    -0.20502327
Li     -7.87585383     2.22857491    -9.91768000     0.54013218    -0.20441661     0.03676792
Li     -7.81129380     2.16127648    -5.86784886    -0.41728375     0.05333909     0.10868051
Li     -3.78998500     6.55583504    -2.16014838    -0.56361294    -0.19357381     0.77410664
Li     -3.83010107     6.74953674    -5.84479589    -0.61717392    -0.27365533    -0.50772063
Li     -7.96319341     6.46322457    -9.92406444     0.30849073     0.08929123    -0.34981973
Li     -7.89234398     6.34295134    -6.03574862     0.20521776     0.44568556     0.91222481
Ti     -2.09027686     2.35886824    -3.95826308    -0.18488578    -1.08266827     0.29710832
Ti     -6.02247797     6.67619892    -7.94267754     1.99500351     0.35482531     0.14064543
Ti     -7.81199945     4.36568346    -7.69423152     1.00779506     0.38255959     0.04493575
Ti     -7.89777923     4.36308522    -3.66838281     0.28612293    -0.09202495    -0.39703749
Ti     -3.85608566     4.46974785    -7.77110139    -0.95063571     0.48544958    -1.04302666
Ti     -4.11937623     4.44361815    -3.86624299    -0.04711663     0.77461882     0.75110003
Ti     -5.71949676     8.72001949    -2.13357450     0.48324761    -0.14695259     0.03532265
Ni     -5.91346750     2.23788927    -7.91456173     0.36791891    -0.51692634    -0.33048341
Ni     -5.91586746     2.16185106    -3.99979342     0.08113110     1.85842610     0.57082992
Ni     -9.80510270     6.26728562    -7.98923331    -1.20582979     1.11218885    -0.43511354
Ni     -9.76754061     6.49923220    -4.03727082    -0.70128518     0.70122894     0.49459143
Ni     -1.99393724     2.16820441    -7.98512158    -0.09699108    -0.15650720     0.51387315
Ni     -6.02588312     6.63914091    -4.12986367     0.14008275     0.32193746     1.16564369
Ni     -1.91871406     0.12524029    -5.99214142     0.54180216    -1.86801274    -0.09509508
Mo     -9.73024789     8.71936781   -10.27588968    -1.36472880     0.37323628    -1.06019873
Mo     -9.63121012     8.72037277    -6.27387136     0.43079877    -0.29053672    -0.91967439
O      -2.12736022     1.95167071    -1.89197367     0.94022056    -0.14784337    -1.05884269
O      -1.87391818     1.91011962    -6.07037188    -0.61544518     0.81800707     0.69444901
O      -6.09030194     6.84122530    -2.19460062     0.78188610     0.49965909     0.78200058
O      -5.87125712     6.91311613    -5.97979321    -0.70691197     0.42381330    -0.32389836
O      -5.88050185     1.92726750    -9.83068802    -0.65729821    -0.15052942     0.63466299
O      -5.96029255     1.88746704    -6.08688471     0.42443382     0.90875529     0.56416924
O      -9.82332117     6.81678642   -10.11556167     0.82324671    -0.43873552     0.31365773
O      -9.72343060     6.68897563    -5.87122043    -0.57647565     1.54333681    -0.36497135
O      -3.96157614     2.36683871    -4.02906896     0.31496952     0.22982349    -0.26969170
O      -4.02276405     2.38238421    -7.88162102    -0.07152134     0.86450443    -0.35407845
O      -7.85399496     2.36075166    -3.88580230    -0.12406578     0.43848351    -0.57948172
O      -7.90922984     2.51020332    -7.88919985     0.32535612    -0.94900086    -0.28500720
O      -4.10465510     6.37325845    -4.01383186     0.60095324    -0.52354765    -0.04363839
O      -3.83073995     6.45146014    -7.92303372    -0.62938704    -0.93455689    -0.91381929
O      -7.92138458     6.36632225    -4.02129979     0.60687021    -0.76271850     0.19952804
O      -7.88607171     6.35978324    -7.97440231    -0.02408070     0.24253344     0.19196585
O      -3.97263433     4.37780590    -2.12840833     0.60235331     0.08692282     0.87426133
O      -3.83472115     4.47921562    -6.04969330    -0.32438171    -0.62764597     1.67920661
O      -7.95076095     4.53301745    -9.89569391    -0.06402368    -0.37265589    -0.35897666
O      -7.85907755     4.50956901    -5.92522627     0.16086435    -0.69587761    -0.90017119
O      -4.03368602     0.12508288   -10.01743864     0.05063862    -0.62209277     0.45668193
O      -3.91046830     0.18899276    -6.15712127    -1.62556351    -0.55769957    -0.03951358
O      -7.75809565     0.07559607    -6.04420166    -0.36295677    -0.49772321    -0.08393206
O     -11.59094136     8.66413904    -9.97800899     0.28642197     0.96693721    -0.05877212
O      -2.05346493     4.29855069    -4.03201357     1.02805295    -0.07189548     0.05654690
O      -2.00989798     4.13636524    -0.07877475     1.24637138    -0.18805575     0.02668914
O      -5.91683893     4.06277575    -3.84441970    -2.26661514    -0.62280123    -1.00843219
O      -5.86413758     4.72406689    -8.04655585    -0.58612405    -0.20525041     0.27214039
O      -1.98376618     0.37198397    -4.00046108     0.01700597     0.54319165    -0.02593460
O      -5.79513728     8.54705105    -7.97224693    -0.45860428     0.23029891    -0.90681426
O      -5.76989162     0.37880544    -4.13170383    -0.38022251    -1.41991359     0.32666647
O      -9.87478214     8.15623832    -7.99838723     0.55267187    -0.48103760     0.37488349
