# total energy = -630.41681941 eV

CRYSTAL
PRIMVEC
        0.00279571     0.02951795    -7.98606283
       -7.83802570     0.01298533    -3.99532603
       -3.92160916     8.71933433     0.00634407
PRIMCOORD
56 1
Li     -3.75623090     2.40161547    -1.94599609    -0.50847731    -0.08870855     0.02540167
Li     -3.80312484     2.08020452    -5.99794915    -0.88262177     0.32372283    -0.56330978
Li     -7.82267632     2.39092197   -10.03605518     0.12151054    -0.41257818     0.18122690
Li     -7.83947344     1.94389206    -5.80750260     0.07392336     0.24410251    -0.57757798
Li     -4.03871904     6.83815078    -1.83085361     0.84870800    -0.43717600    -0.53915505
Li     -3.98065317     6.58692900    -6.00990147    -0.03651686    -0.46441423     0.15127165
Li     -7.95980180     6.26844803    -9.94744567     0.15582958     0.13263864     0.18421124
Li     -7.86493782     6.36943508    -5.81153104    -0.20682410     0.58713173    -0.02517998
Ti     -1.95088993     2.26236776    -4.11344314    -0.44737179    -0.05844692     0.68660797
Ti     -5.96397692     6.65048605    -7.94778711     0.44366305     0.52600912     0.19331568
Ti     -7.87763559     4.39748661    -7.67502076     0.11504827     0.04680078     0.37726063
Ti     -7.73016973     4.28023013    -3.68704893    -0.69792071     0.70013894    -1.65950779
Ti     -3.82051987     4.35909441    -7.84313472     0.27923691     0.10630136     0.89051256
Ti     -3.95567596     4.46571815    -3.79811603     1.56654716     0.70360938     0.71516789
Ti     -6.14057917     8.60590664    -2.28571309     1.11836104     1.15966252     0.08472898
Ni     -5.87229308     2.55262320    -8.09425826     0.13600951    -0.46952178     0.39376967
Ni     -5.75719927     2.30434838    -3.97641669    -0.49497632    -1.09467937    -0.75137417
Ni     -9.89133930     6.48487847    -8.15293024     0.14054069    -0.08847288     1.38252462
Ni     -9.85014383     6.53712451    -3.95195059     0.66687655    -0.32659478    -0.21595258
Ni     -1.91371646     2.04732944    -7.97593463    -0.43446021     1.23150138    -1.29211070
Ni     -5.94997933     6.47868944    -4.01744270     0.17102872     0.16837057     0.06316065
Ni     -5.85227182     8.70942956    -5.95981782    -0.74977998    -1.37260053    -1.38660091
Mo     -5.96475221     0.03901300    -9.97247963    -0.99783643    -0.22779151    -0.82482449
Mo     -9.77476762     8.70746231    -6.33058259     0.09477825     0.37134768     0.81462164
O      -1.95995289     1.82220232    -2.10463756     0.16076540     0.09837721     0.26764917
O      -1.95276823     1.80809999    -6.12711487     0.85066963     0.19207703     1.12756131
O      -5.89697123     6.73392735    -2.07708390    -0.24962118    -0.41251268     0.49304910
O      -5.96801591     6.82011165    -5.94427579     0.22089666     0.20707984    -0.35936808
O      -5.80815985     2.17516291   -10.06448155    -0.23096215    -0.94204289     0.52207534
O      -5.74889622     1.91439371    -5.87266335    -0.77366934     0.24855635    -0.10277577
O      -9.85562668     6.75446659   -10.01768969     0.54778729     0.81528946    -0.18345365
O      -9.70858741     6.85492802    -5.86099642    -1.41717734     0.43528725    -0.23907053
O      -3.81328696     2.46933578    -4.08380555    -0.87477693    -0.38643446     0.53366172
O      -3.95896981     2.40142171    -8.00886733    -0.20537830     0.23272228    -0.35726266
O      -7.73155418     2.40844512    -4.04664780     0.34788783    -0.83180414     0.69924560
O      -7.95482194     2.48693091    -8.02370355     1.91205053    -0.56027031     0.09688687
O      -3.98167994     6.41566746    -4.04573735     0.42986790    -0.48160099    -0.01881204
O      -3.91806407     6.38657041    -7.98578210    -0.99353219    -0.07139310     0.08915825
O      -7.91847426     6.22619862    -3.83401772    -0.02949494     0.51286038    -0.65013155
O      -7.98126107     6.31222616    -7.95586777     1.39377675     0.84321998    -0.72303295
O      -3.80407429     4.37224973    -2.02884439    -0.19674263    -0.00316003    -0.38074722
O      -3.82087295     4.30600369    -6.09035233    -0.01850927     0.51822938     0.31508494
O      -7.76973428     4.29904616    -9.92879158    -0.19654026     0.37328779     0.13915649
O      -8.00531910     4.55757725    -5.94706812     0.50565531    -0.85767477     0.09752293
O      -7.87580364     8.73686294    -9.91626275    -1.76146142    -0.41337516     0.11020201
O      -7.95773297     8.70832175    -6.13562778    -0.44820740     0.18984736     0.19332832
O      -7.73865431     0.08472521    -5.96125539     1.39791409    -1.01426843    -0.60513489
O      -3.86283205     8.53344556    -5.95913904     1.29763894     1.11295942     0.22149528
O      -1.96407790     4.25015755    -4.09181363    -0.10625145    -0.31862130    -0.15000650
O      -1.92453328     3.95923488    -8.02629541     1.03209675    -0.29586028     0.20177252
O      -5.74582078     4.26726677    -4.11528265    -2.74183783    -0.19655139     0.03001594
O      -5.88650224     4.49432936    -7.97098596    -0.24114400     0.12059160    -0.01356562
O      -2.05367034     0.21187764    -4.13944737     0.04255219     0.37224976     0.83737729
O      -5.89256884     8.51206541    -8.04382802     0.05959510    -0.33154521     0.42280602
O      -5.84895045     0.38363798    -3.78838982     0.15355908     0.02173183    -0.03743870
O      -5.91366725     0.72938951    -8.07966176    -0.14858020    -0.76988314    -0.91117571
