# total energy = -631.33001267 eV

CRYSTAL
PRIMVEC
        0.00285542     0.02004370    -7.95977623
       -7.82940539     0.00763210    -3.98158109
       -3.91729101     8.74642787     0.01461334
PRIMCOORD
56 1
Li     -3.91987436     2.16617935    -1.92436068    -0.10820134     0.09577845    -0.38728685
Li     -3.95443992     2.36653004    -6.00572128    -0.24625625    -0.10802351     0.01751304
Li     -7.83749873     2.23598449    -9.84677704    -0.02404426    -0.22731234    -0.45410183
Li     -7.88907414     2.28371740    -5.81477910     0.23556934     0.17252762    -0.35989060
Li     -4.01673296     6.55820477    -1.99974426     0.49279143    -0.40484304     0.30976145
Li     -3.87924146     6.73060045    -5.94341014    -0.06150104    -0.38861475     0.66493242
Li     -7.80048885     6.48060315    -9.89656582    -0.17093517    -0.17708767     0.22602056
Li     -7.82945328     6.34899000    -5.88287592    -0.20529446     0.02253411     0.22819244
Ti     -2.06370088     2.32347377    -3.98053370     0.14224468    -0.40301864    -0.17823904
Ti     -5.88143648     6.88390306    -7.78243571    -0.16657811    -0.83468935    -0.44481318
Ti     -7.79710307     4.33838195    -7.69063637     0.48898012     0.40962014     0.40458152
Ti     -7.81761961     4.33081924    -3.67265985    -0.15883008    -0.52501288    -0.27333930
Ti     -3.85266632     4.43248410    -7.72799491    -0.73314348    -0.19492869    -0.69489876
Ti     -4.08429027     4.46959893    -3.75385136     1.03805592    -0.40207104    -2.28103020
Ti     -5.73787260     8.66939610    -2.11730683    -0.17771125     0.29058185    -0.52712752
Ni     -5.90883365     2.37833837    -8.09124143     0.64124493    -0.01938542     0.02756714
Ni     -5.94658746     2.14352345    -4.00100880     0.80506108     0.88739908    -1.85590512
Ni     -9.77237905     6.58702278    -7.89700701    -0.43300233    -0.59937587    -0.23848682
Ni     -9.77942854     6.49478163    -3.98008283    -0.03595539    -0.26682803    -0.33053449
Ni     -2.02469202     2.34700739    -7.99363757     0.51173122    -0.71144710     0.13139206
Ni     -5.96090522     6.54421269    -3.88726577     1.06927317     0.44026276    -0.71731284
Ni     -1.92046169     0.02209572    -5.83601750    -0.06150092     0.06787775    -0.39770304
Mo     -9.76128038     8.66161329   -10.22879013    -0.15126841     0.78806663     0.44143555
Mo     -9.75787646     8.68726608    -6.35504180    -0.57397652    -0.35751977    -0.49330573
O      -1.93189303     1.89644967    -2.06219478    -0.21480456    -0.00866691     1.45172683
O      -2.03788043     1.87483721    -5.86691579     0.53442955    -0.54786738    -1.43033181
O      -5.95660638     6.73977268    -1.96989645     0.33367098     0.08578903     0.33948721
O      -5.81924521     6.87714455    -5.81355776    -0.55905085     0.33174108    -0.23369862
O      -5.86092462     2.04619278   -10.16858954     0.11193097    -0.62529368     1.85400825
O      -5.98356082     1.86465999    -5.92612696     0.26270703    -0.05380204    -0.27794513
O      -9.70032850     6.81623390    -9.82679409    -0.79257495    -0.00203899     0.17548386
O      -9.84425446     6.71414666    -6.06198346     0.33914768     0.82446771     1.04355884
O      -3.91724159     2.38241109    -4.01389010    -1.10052799    -0.01610297     0.16388644
O      -3.93945927     2.47852853    -8.04825847     0.16178571    -0.08860928     0.62163683
O      -7.86330683     2.34611708    -3.90214245    -1.01222339     0.58767365    -0.11101846
O      -7.81349336     2.45630714    -7.93008923     0.22626738    -0.41782333    -0.08195458
O      -3.94909674     6.37194882    -3.96557219     0.34208389     0.13976651     0.00323805
O      -3.96237596     6.40888017    -7.84049799    -0.14732807     0.40421178    -0.67340368
O      -7.81096983     6.25969845    -3.94279342    -0.62003024     0.86920097    -0.02113537
O      -7.76573557     6.31868286    -7.84881024    -0.11167134     0.59900971    -0.23144479
O      -3.76795044     4.33134418    -2.08815407    -0.15541365     0.08939621     1.99453114
O      -3.87838923     4.35456048    -6.00891353     0.26554301    -0.18355332     1.36416110
O      -7.84936710     4.38009395    -9.87082353     0.17638759     0.15727797    -0.42457779
O      -7.95189467     4.38727628    -5.91275505     0.17424104    -0.24751693    -0.96283727
O      -7.89291854     8.66750510    -9.96227303    -1.33153471     0.56526042    -0.25642205
O      -8.02341388     8.60539451    -6.23634067     0.55470834     0.21959349     0.68635572
O      -3.90476921     8.46703255    -1.98794116     0.48512485     0.94300159    -0.16104662
O      -7.72545557     0.04656789    -9.95257698     1.38354704    -0.62358238    -0.59065742
O      -1.95439409     4.13176429    -4.17894510     0.00718807     1.16728599     0.71550062
O      -9.79154034     4.55881950    -4.03851626     0.94876624    -0.55144904     0.23494687
O      -5.89147999     4.18360113    -4.14530930    -1.23730294    -0.36066210     0.74002134
O      -5.78154298     4.30694512    -7.95201681    -1.76203557    -0.30705303    -0.23657461
O      -1.88098737     0.27773352    -3.95078759    -0.39693216    -0.70465084    -0.37022674
O      -5.92386619     8.65438416    -7.96643385     0.22465224    -0.13338300     0.33845447
O      -5.88493503     0.20634382    -4.11715084     0.12688633    -0.28025762     0.54370096
O      -6.01161084     0.49666450    -8.16401838     0.46696777     0.77930305     0.83148106
