# total energy = -630.62811224 eV

CRYSTAL
PRIMVEC
        0.00285542     0.02004370    -7.95977623
       -7.82940539     0.00763210    -3.98158109
       -3.91729101     8.74642787     0.01461334
PRIMCOORD
56 1
Li     -3.76964381     2.48603281    -1.90299381    -0.18372753    -0.75142138     0.13965892
Li     -3.97289080     1.94208003    -5.94297307     0.09705557     0.46936141    -0.09338209
Li     -7.75414188     2.32094133    -9.86986164     0.08905105    -0.18772764    -0.44337119
Li     -7.82285566     2.60497851    -5.82559564    -0.01938354    -0.69389926    -0.53292587
Li     -3.90683727     6.25528702    -1.99504173     0.09683670     0.65003345    -0.09546703
Li     -3.94623914     6.46189241    -5.73001524     0.30799343     0.02580084    -0.87813159
Li     -7.93746441     6.37954856   -10.06833769     0.18743914     0.23814298     0.94292835
Li     -7.82242126     6.43024662    -5.89669198     0.18739795     0.20978600     0.18414204
Ti     -1.90533461     2.23012423    -4.05051889     0.38634657    -0.36374234     0.24132316
Ti     -5.80297873     6.65269876    -7.97492530    -0.26546012     0.10964143     0.17284458
Ti     -7.92219154     4.48152420    -7.72481422     0.60825757     0.51597379    -0.57774578
Ti     -7.83997146     4.30100979    -3.72580014    -1.10133446     0.56085868     0.15896740
Ti     -3.97289379     4.26774552    -7.77268448     0.29716040     0.96038658     2.15531920
Ti     -4.04468366     4.31159204    -3.79407937     0.28368612     1.62233929    -1.67787976
Ti     -2.08602170     0.01532381    -2.09495643     0.42053562     0.59206411     0.41910562
Ni     -5.89273701     2.35533760    -7.99760042    -0.19524251     0.14667066     0.03044299
Ni     -5.86694697     2.27119356    -3.97288567     0.48182766    -0.47847296    -0.82982322
Ni     -9.74741698     6.54980574    -7.81622099    -1.06346412     0.10948623    -1.08337700
Ni     -9.81963928     6.36606608    -4.10551617     0.05828051    -0.15241589     0.31281893
Ni     -1.90130085     2.05364642    -7.86280447    -0.09531865     0.30438781    -0.95558364
Ni     -5.87326130     6.46327003    -3.98691889     0.38573041     0.01590579    -0.05168850
Ni     -6.07310172     8.67661190    -5.88621243     1.44139304     0.24247054    -0.63308143
Mo     -5.84713700     0.10651520   -10.22524804    -0.77865300    -0.95055759    -1.31081007
Mo     -5.92825028     0.06122976    -6.24318294    -1.16658792    -1.92165493    -0.30299996
O      -1.86810573     1.93627778    -1.93643936     0.01897012     0.33948509    -0.05080128
O      -1.92877644     1.82898435    -5.99569799    -0.50994895    -0.53921026     0.58059033
O      -5.89159048     6.89364172    -2.03569989    -0.13337101    -1.59645743    -0.05806865
O      -5.87973925     6.74199429    -5.98508154    -0.47530942     1.47089829     1.14845359
O      -5.75062765     2.06529975    -9.93983643    -0.37303956     0.49101292    -0.03979777
O      -5.96891539     2.01592035    -5.99496679     0.57486500     0.54936108     0.51183428
O      -9.85927336     6.96636250    -9.91654585     1.28289796     0.45612099     0.39348429
O      -9.71482237     6.77823026    -6.00425663    -0.58002265     0.35519246     0.79516635
O      -3.82862016     2.46034753    -4.00289529    -0.85269256    -1.74111688    -0.11890506
O      -3.94939705     2.36757485    -7.87663270     0.38403215     0.24618546    -0.23252754
O      -7.75882831     2.37663071    -3.98927739    -0.74920640     0.02751099     0.69336093
O      -7.85967855     2.51875617    -7.97032780     0.64046565    -0.56171421     0.07670353
O      -3.80492183     6.26957800    -3.92739852    -0.47858373     0.36956205     0.43186218
O      -3.97218314     6.40426557    -8.00895003     0.75058296    -0.43255994    -0.14864797
O      -7.79045059     6.24473005    -3.94769788    -0.67899543     0.56499687    -0.45828944
O      -7.89476395     6.42490883    -7.91559549     0.65990748    -0.20878387    -0.47088304
O      -3.92910687     4.37627085    -2.05390587    -0.08479341    -0.02957978     1.44869301
O      -3.84633864     4.53664134    -5.98804197    -0.13538934    -0.45928125    -1.18626291
O      -7.77799034     4.38811171    -9.89999092    -0.25452332    -0.04306217    -0.93885346
O      -7.70845152     4.47581757    -5.98984312    -0.59049926    -0.30395438     0.33606006
O      -3.89804745     0.18933987    -9.78365730    -1.01267206    -0.60105517    -0.93376384
O      -8.02456996     8.75252552    -5.88906423     0.68269868    -0.03138270    -0.54271551
O     -11.64334933     8.67499816    -6.06906378     0.42414841    -0.16693986     0.71331657
O      -7.58395163     0.13838312   -10.05540176    -0.24130859     0.32155889     0.25481097
O      -1.97027100     4.15309686    -4.03617483    -0.12919670    -0.08476153     0.09426119
O      -2.04127291     4.46573773    -0.18762659     1.30767860     0.01149839     0.52322742
O      -5.92741032     4.30214472    -4.14476957     0.26909880    -0.26521133     0.74610944
O      -5.89705521     4.54859182    -8.02665143     0.28084660    -0.56444973     0.05986552
O      -1.79517086     0.17536086    -3.94506126    -0.86778815     0.49242047    -0.92430783
O      -5.83104341     8.51559680    -7.93136475    -0.16450642     0.23448797     0.31653047
O      -5.80551520     0.21581929    -4.15455017    -0.02924820     0.55036032     2.85166727
O      -5.93190434     0.47386454    -8.00594573     0.48983190     0.74280221    -1.06350029
