# total energy = -630.18904343 eV

CRYSTAL
PRIMVEC
        0.00279571     0.02951795    -7.98606283
       -7.83802570     0.01298533    -3.99532603
       -3.92160916     8.71933433     0.00634407
PRIMCOORD
56 1
Li     -3.99100177     2.30237944    -1.86395748     0.39134692    -0.20462160    -0.71691654
Li     -3.90483627     2.28000496    -5.94319217    -0.09393882     0.12243816    -0.79061956
Li     -7.82948909     2.21878535    -9.95662668    -0.37888773     0.48539531    -0.13791542
Li     -7.72894762     2.07637479    -5.98852579    -0.49084808     0.34583684     0.12221937
Li     -3.98193926     6.39255041    -1.91520027     0.19441753     0.26108556    -0.13639149
Li     -3.87175033     6.51284364    -6.00130514    -0.49436864    -0.47702213     0.57651355
Li     -7.96128776     6.66973629    -9.98750440    -0.28298759     0.04566582     0.21193718
Li     -7.68270278     6.37784690    -5.93449852    -0.40044673    -0.05659619     0.45253898
Ti     -1.93662821     2.25595602    -4.01621117     0.01735875     0.59240887    -0.16703686
Ti     -5.90648531     6.92512434    -7.97916045    -1.07014048    -1.76742199     0.17248138
Ti     -7.76615738     4.41829885    -7.78572120    -1.93324226     0.07624613    -1.58351834
Ti     -7.81527553     4.34156382    -3.69157280    -0.00603994    -0.57839683     0.63972928
Ti     -3.93643161     4.40988158    -7.85009793     0.05329712    -0.64546727     3.12609775
Ti     -4.16689909     4.41237003    -3.72190551     0.60213461    -1.20279642    -2.75978958
Ti     -6.10933028     8.71212144    -2.16315720    -1.08318506     0.40064469     2.27073180
Ni     -5.86233690     2.40895929    -7.96004469     0.08966146    -1.32003246    -0.41392589
Ni     -5.83631767     1.95774951    -4.08936183    -0.79068483     0.33657256     0.70026635
Ni     -9.82974987     6.48596242    -7.81671983     0.32361179     0.41399788    -1.27951058
Ni     -9.80316192     6.41793021    -4.01009608     0.07017865    -0.11830812     0.25587452
Ni     -1.90137694     2.23841858    -8.05927598    -0.50312665    -0.22646142     0.45386360
Ni     -5.85552485     6.76064317    -3.92091595    -0.06720954    -0.55812318    -0.89735776
Ni     -5.92626179     8.73890394    -5.93495404    -0.12385897     0.23329296    -0.63451172
Mo     -6.11722211     0.18992517   -10.20893514     2.07031770    -0.97804035     0.50430121
Mo     -9.68964960     8.53876814    -6.34693902     0.97425966     1.12241349    -1.44680151
O      -1.92502282     1.94519157    -2.06950204    -0.19319749    -0.62957896     0.46295061
O      -1.97480903     1.82165629    -5.95168169    -0.05191548     0.60291520    -0.19587620
O      -6.05444704     6.77786853    -1.95451369     1.24501371    -0.27013831    -0.31925829
O      -5.89548868     6.94836543    -6.07007634     0.27763132    -0.89358064     1.36225255
O      -5.88719678     2.10157183   -10.12556053     0.19394514    -0.54954694    -0.33231522
O      -5.90394775     1.79289416    -5.92160905     1.26053229     0.13387737     0.03735067
O      -9.92835598     7.01166048    -9.70549271     0.52129245    -0.15746366     0.12996153
O      -9.62653774     6.65236799    -5.94594015    -0.50133889    -0.40046587     0.03748443
O      -3.98292907     2.39852303    -4.12985076     0.08099943    -0.18080606     1.44257198
O      -3.82906707     2.47717373    -8.03997086    -0.61406903     0.16723705     0.61197393
O      -7.89697783     2.36804206    -4.02354313     0.91289864     0.13070137    -0.03319262
O      -7.80003626     2.33923439    -7.94540989    -0.00961900     0.30920449    -0.40265440
O      -3.80903128     6.28027086    -3.92064914    -0.10625368     0.59248476     0.33796042
O      -4.09719869     6.42574316    -7.92368376     1.73946666    -1.04854515    -0.86545555
O      -7.91293799     6.23326745    -3.92472816    -0.57685636     1.35087286    -0.22169768
O      -7.94584687     6.42005130    -8.05701493     0.81689708    -0.87586005     1.01682663
O      -3.81509976     4.27505874    -2.02735642    -0.36752438     0.45365692     1.82654527
O      -3.92126614     4.31051659    -5.98169877     0.21061828     0.64033697    -2.23058767
O      -7.75846762     4.17623527    -9.89116208    -0.36307974     0.30916960    -1.63132957
O      -7.74851760     4.24390068    -6.09124617    -0.15423808     0.29225046     2.25318692
O      -7.89581923     8.72407324    -2.12196753    -0.22164696     0.56191685    -0.16554950
O      -7.81736900     8.60690226    -6.01454505    -0.37667213     0.35672024     0.01482866
O     -11.41646403     8.53543470    -6.09440194    -0.89633170    -0.21793814     0.50267189
O      -7.84052052     0.13696107   -10.19346662    -1.66678364     0.25709614     0.73298696
O      -2.01402575     4.04086808    -3.96175106     0.52352027     0.96842517    -0.44328989
O      -9.78712955     4.47774871    -4.01501242     0.24390153     0.53871207     0.02015657
O      -5.92381014     4.94313561    -4.09857675    -0.63060960    -0.83235387     0.55997627
O      -5.93914495     4.35301667    -8.00727599     2.49621918    -0.47670358    -0.39173919
O      -5.52494010     8.70437552    -3.84271831    -0.39912874    -0.04199738    -2.58467210
O      -5.66320621     8.62713225    -8.20388841    -0.37627407     2.26149393     0.12946468
O      -9.77638846     8.34305080    -3.90218417     0.26025030    -0.41911273    -1.59759541
O      -5.75379603     0.46733617    -8.18446844    -0.27011305     1.01039551     1.26580049
