# total energy = -630.48558497 eV

CRYSTAL
PRIMVEC
        0.00279571     0.02951795    -7.98606283
       -7.83802570     0.01298533    -3.99532603
       -3.92160916     8.71933433     0.00634407
PRIMCOORD
56 1
Li     -3.97053653     2.52377406    -1.94851980     0.36108319    -0.47370387     0.69624507
Li     -3.94084225     1.90149915    -6.15472821    -0.08203867     0.43153948     0.07327365
Li     -7.72426997     2.00037605    -9.92976433    -0.36588918     0.48015558    -0.38339958
Li     -7.87604672     2.23269230    -5.95009937     0.44932305     0.18153678    -0.01193713
Li     -3.87285582     6.46575089    -1.97191024    -0.84073164     0.04690116     0.21138826
Li     -3.91604720     6.62172363    -5.89276735    -0.20086849    -0.09870852     0.39408982
Li     -8.01481031     6.44527974    -9.92007967     0.86467953    -0.13943333     0.18117865
Li     -7.88734351     6.67053688    -5.82554374     0.14705362    -0.21952837    -0.25090464
Ti     -2.06764610     2.38328594    -4.10193433     1.96781445    -0.86070714    -0.06907709
Ti     -5.89273017     6.85337986    -7.95192912    -0.15255483     0.64384407    -0.33992103
Ti     -7.73719429     4.36011342    -7.75680647     0.22158203     1.49826825    -1.30144150
Ti     -7.75210989     4.35996324    -3.77003842    -1.80952777     0.14358655     2.33108343
Ti     -3.93793282     4.33685280    -7.64860991     0.31793030     0.20607201    -0.30866619
Ti     -4.14081135     4.34724714    -3.70048550     0.94209723     2.90701277    -0.15467585
Ti     -1.90324466     0.04242434    -2.22740768     0.41315609    -1.06467596    -0.46124925
Ni     -5.86807703     2.27667457    -8.10437988     0.20123473     1.11685595     0.51381936
Ni     -5.90200221     2.25662719    -3.97832195     0.81798559    -1.27528101    -0.78179392
Ni     -9.88253504     6.33410647    -7.79749400     0.29262744     0.21060172    -0.65989683
Ni     -9.81188437     6.31074749    -3.96697420    -0.57181477     0.26842051     0.30391098
Ni     -1.88403819     2.22006898    -7.94351893    -0.22690612     0.06574292    -0.89955573
Ni     -5.93956550     6.68448823    -3.99177780    -0.03000450     0.08670344     0.33913277
Ni     -1.96332254     0.03519794    -5.99202623    -0.16857242    -1.19818399     0.11058838
Mo     -9.78549493     8.66639289   -10.34902558    -0.39379954    -0.68205385     0.93731777
Mo     -5.86662013     0.03689325    -6.28735511     0.46324794    -0.00163218     0.27427225
O      -1.89820869     1.90971038    -2.00274249    -0.63167585     0.34055829    -0.46898310
O      -2.01935450     1.90535595    -6.01128009     0.19439993    -0.41934665     0.35545082
O      -5.96830415     6.81196257    -2.03156769     0.35015547     0.06468872     1.05473384
O      -5.94799969     6.87230688    -5.86983623     0.60612260     0.34037318    -0.90989841
O      -5.79993943     2.02716149    -9.99604205    -0.36914049    -0.20203351    -0.08081382
O      -5.88247514     1.98404443    -6.02979691    -0.18042907     0.18303818     0.34923229
O      -9.81912161     6.76525485   -10.02528388    -0.63799993     0.31352039     0.29249987
O      -9.93502178     6.91358978    -5.98402837     1.21743169    -1.70894876     1.09038710
O      -3.89114417     2.45490678    -3.84854778    -1.28064548    -1.35045936    -0.75529571
O      -3.96456770     2.41838980    -8.03515666     0.44277587     0.14643444     0.28640669
O      -7.71194594     2.39972118    -4.00471241    -1.57992542    -0.51752024     0.21810232
O      -7.90819794     2.52897505    -8.12546832     0.18932032    -1.76354373     0.73963919
O      -3.99072283     6.39107367    -3.91724487     0.43812609    -1.19958188    -0.26628235
O      -3.93556791     6.44412199    -7.85304778    -0.54799151    -1.01530502    -0.53479359
O      -7.92473528     6.29542849    -3.89413797     0.09286925     0.26755052    -1.11360488
O      -7.79460569     6.47603763    -7.84272969    -0.04133901    -1.08654916    -0.60961464
O      -3.89238275     4.49960615    -1.94659549    -0.18777348    -0.23666666    -0.49994542
O      -3.99839905     4.33697193    -5.90295281     0.66478919     0.32551996    -0.03741821
O      -7.80043897     4.46835931    -9.93049165    -0.22290433     0.14453146    -1.47866413
O      -7.77645263     4.35383896    -6.03950311    -0.42897070     0.25223229     1.41684568
O      -8.02047969     8.58750923    -2.14741850     1.14708377     0.57900438     0.53075121
O      -7.91788258     8.65763140    -6.17487241    -1.36046515     0.27733395     0.73816962
O      -3.89175629     8.65666611    -2.18291584    -0.09659250     0.69720593     0.09348127
O      -7.64853794     0.08976536    -9.89715497    -0.07673358    -0.39940907    -0.27330845
O      -2.02222830     4.18337022    -3.99422801    -0.00358932     1.15499728    -0.12331646
O      -1.87593563     4.11040993    -0.09650731    -0.90743059     0.02004218     0.60240212
O      -5.93718657     4.04804472    -4.07431017     0.81463431     1.27186096     0.05734139
O      -5.83767287     4.32488192    -8.00575448     0.17767752     0.07411560    -0.08643961
O      -2.08643658     0.02802561    -4.09879282     0.09964573     1.50834487     1.20399794
O      -5.82785239     8.73012399    -8.04669743    -0.03268293    -0.79429217     0.26875988
O      -5.92118781     0.36022120    -4.11517519    -0.06848405     0.31499329    -0.74719544
O      -5.78684102     0.44626967    -8.00973359    -0.53800055     0.08146019    -1.86152044
