# total energy = -630.56944923 eV

CRYSTAL
PRIMVEC
        0.00279571     0.02951795    -7.98606283
       -7.83802570     0.01298533    -3.99532603
       -3.92160916     8.71933433     0.00634407
PRIMCOORD
56 1
Li     -3.84916837     2.37815684    -1.88991540    -0.37333533    -0.05608666    -0.35299017
Li     -3.86951401     2.13820617    -5.80391116    -0.78657133    -0.10410540    -0.71327209
Li     -7.80066857     2.44411444   -10.00214102     0.26560340    -0.24387997     0.05173471
Li     -7.79567611     2.23118352    -6.05285625    -0.15244373     0.02505073     1.00236263
Li     -4.02851572     6.66558549    -2.09038118     0.60183209    -0.41467623     0.46788905
Li     -3.94376086     6.24910809    -5.96475760     0.03120607     0.78355606     0.39245273
Li     -7.89787745     6.58208981    -9.80919345     0.36899614    -0.16597124    -1.46704129
Li     -7.86478306     6.44071702    -5.68902708    -0.15841748     0.36280109    -1.03371466
Ti     -1.87271847     2.19617759    -4.13548668    -0.93947628    -0.26281372     1.76980292
Ti     -5.83913878     6.86763684    -8.01714315    -0.05401269    -0.53669115     0.61702609
Ti     -7.78095581     4.40366807    -7.72778141    -0.04738728     0.68827896     0.68358878
Ti     -7.74869696     4.40355354    -3.66364810    -0.12633549     0.56859430    -1.14801508
Ti     -3.89563878     4.32805713    -7.78891401    -0.51905872    -0.07007919     1.11513450
Ti     -3.89154943     4.40896817    -3.75859428    -0.30113967    -0.93359674     0.64600441
Ti     -2.17086872     0.01466494    -2.11699372    -1.16915354     0.74800911    -0.89772327
Ni     -5.84128831     2.33204218    -7.99409868    -0.06187895     0.70025166    -0.40797842
Ni     -5.87073857     2.29544076    -4.06829450    -0.54053962    -0.61996618     0.45148760
Ni     -9.81022316     6.57209854    -7.97327016    -0.28667961    -0.37922644    -0.37118989
Ni     -9.89428125     6.34157906    -3.96937510     1.07501815     0.27342381    -0.26395608
Ni     -1.88956904     2.35033211    -7.89040920    -0.43279171    -0.67230037    -1.36032713
Ni     -5.91669470     6.44115344    -4.02123681     0.12473802     0.61749058     0.07473837
Ni     -5.88704055     8.66034996    -5.88802829    -0.44833661     0.08057979    -0.73040252
Mo     -9.96207098     8.73052978   -10.20067318     1.72454740    -0.34799030    -1.40538636
Mo     -9.82878169     8.69360659    -6.40970101     2.81077093    -0.80653398     2.10263280
O      -1.97700604     1.94561359    -1.90333843     0.20391789    -1.20556971    -0.91673968
O      -1.94948142     1.85984315    -5.99016509     0.34630815    -0.39654702     0.10135981
O      -5.88608286     6.72805270    -1.93846850    -0.16184151     0.68299946    -0.63493342
O      -5.91119082     6.77908679    -5.96109076     0.01327135     0.53768591     0.21404724
O      -5.89647078     2.02899149   -10.09391108    -0.00357810    -0.37369680     0.77870032
O      -5.83837585     1.97244680    -5.96669717     0.18627396     0.37825648    -0.36749768
O      -9.68178283     6.73194804   -10.04512558    -2.01354243     0.99364132     0.76861286
O      -9.91363788     6.78525776    -6.09722342     0.74772597     0.20416057     0.72575863
O      -4.03010959     2.38269665    -3.88632221     1.96498605     0.45042376    -0.90069177
O      -3.90847370     2.40610949    -7.94190534     0.19927564     0.32375317     0.12234334
O      -7.79275927     2.50108601    -4.03420800    -0.33298281    -0.56633250     0.44773805
O      -7.82287493     2.35036612    -7.94395617    -0.18916358     0.46226480    -0.75277279
O      -3.93461782     6.33683464    -3.92782252     0.43459999     0.49743566    -0.87689075
O      -3.96254686     6.39677336    -8.04179223    -0.32796131    -0.58379337     0.58696087
O      -7.90890892     6.34710559    -3.88083183    -0.16227382    -0.71143502    -0.26758174
O      -7.83692220     6.39970271    -8.08290567     0.34452003    -0.78718992     2.06984915
O      -3.77499960     4.37458944    -2.00187611    -0.48660881     0.26571720     0.18530340
O      -3.96937700     4.44376992    -5.95697892     0.30922112    -0.46190833    -1.66429485
O      -7.90455924     4.39258331    -9.91415288    -0.34623500    -0.42844277     0.48726609
O      -7.86381763     4.35462805    -5.93950877     0.05913936     0.53273563    -1.67006907
O      -7.95250025     8.58949873    -2.08406007     1.09876251     0.61648202     0.44529845
O      -7.95852795     8.66698685    -5.87033842    -1.21315964     0.05033486    -0.89829952
O      -7.63457775     0.08911217    -6.11813401    -1.61585441    -0.32385327     0.02839174
O     -11.67147196     8.59789597    -9.90530500    -0.82564777     0.06795557    -0.07541808
O      -1.97625378     4.07730866    -4.05037042     0.82094774    -0.05283832    -0.17709888
O      -2.00638415     4.20007031    -0.10953132     0.91182712     0.74466724     0.80546568
O      -5.83525373     4.31024394    -3.96838040    -0.60485869     0.02857559    -0.04969794
O      -5.91326966     4.21555756    -8.15788480     0.50643713     0.27301634     0.69135096
O      -2.00775481     0.15613119    -4.03203919     0.35892538     0.57567108     1.53305624
O      -5.70250028     8.65480486    -8.09273736    -0.52582248     0.03281671     0.54977639
O      -5.96473523     0.39252934    -4.01172447    -0.22768815    -0.47847328     0.91268713
O      -5.77575340     0.50864962    -8.13897760     0.01727275     0.24142384    -1.29486598
