# total energy = -630.64787725 eV

CRYSTAL
PRIMVEC
        0.00285542     0.02004370    -7.95977623
       -7.82940539     0.00763210    -3.98158109
       -3.91729101     8.74642787     0.01461334
PRIMCOORD
56 1
Li     -3.88138824     2.56479826    -1.92500813    -0.07533120    -0.40258227     0.10508604
Li     -3.94195832     2.08900219    -6.00873644     0.02123763     0.41776991     0.06229158
Li     -7.90069162     2.11640415    -9.89725955     0.14614293     0.06830483    -0.58110645
Li     -7.93366757     2.18072909    -5.98118821     0.79270832    -0.12899293     0.34236001
Li     -4.00318760     6.39874313    -1.78810335     0.68275157     0.50371427    -0.47488440
Li     -3.94907137     6.67303927    -5.85031112     0.16828432     0.06746205     0.34474895
Li     -7.95300732     6.41537714    -9.92934727     0.22996006    -0.06356502     0.34508298
Li     -7.95922228     6.50351170    -5.96318717     0.36219076    -0.29547303     0.16721115
Ti     -2.07841985     2.16894428    -3.97557247    -0.49215934     0.33036944    -1.17083519
Ti     -5.86364152     6.75993200    -7.97118100    -1.63798392    -1.10390953     0.62010472
Ti     -7.78862921     4.22448146    -7.67172302     0.09669297     1.91905461    -2.40079289
Ti     -7.90057036     4.36368226    -3.71100091     1.14335963    -1.46312163    -0.00914249
Ti     -3.78957397     4.45338195    -7.57996207    -0.96311637    -1.21523223     1.07286276
Ti     -3.84944738     4.64899588    -3.67311749    -0.61038328    -1.84627284    -2.13653463
Ti     -2.05067314     0.00908544    -2.10818725    -0.21121475    -0.99335500    -1.25779461
Ni     -5.76221345     2.38925906    -8.12663337    -0.16398378    -0.27595542     0.79387775
Ni     -5.90180784     2.24533316    -4.05996105     0.31712840     0.02919433    -0.31516644
Ni     -9.84356414     6.67703745    -7.91318989     0.38648213    -0.17048514     0.63778451
Ni     -9.81000240     6.45494939    -3.99625946     0.42310752     2.02972566    -0.09621896
Ni     -1.94839909     2.08957419    -7.93723349    -0.06614880    -0.13465249    -0.31783396
Ni     -5.99882177     6.43937511    -3.96833275     0.85148272     0.69514071    -0.25191506
Ni     -6.05024009     8.66796899    -5.91524011     0.81927210     0.72049724    -0.52445065
Mo     -5.84769785     0.05000241   -10.24296294     0.68031455    -0.43499416    -0.81790558
Mo     -5.83597343     0.02025979    -6.34605171    -2.11113057    -0.56339984    -1.29082992
O      -1.98499357     1.90163341    -1.91955739     0.16641452     0.43495146    -1.03440373
O      -2.05741317     1.74151687    -6.14233999     0.45050107     0.45340288     1.78956416
O      -5.93205746     6.80232078    -2.03377380     0.29993739    -0.54251426     1.33944241
O      -5.87130287     6.89001301    -5.86307482    -0.64896310    -1.04055324    -0.55200377
O      -5.77691622     1.97024449   -10.14444470    -0.03434201     0.82821929     0.41583076
O      -5.83608570     1.97670272    -6.00485199    -0.50598794    -0.30183185     0.85660634
O      -9.80390264     6.81377419    -9.79808446     0.13115350     0.78053434     0.27075664
O      -9.83822416     6.76182076    -6.01951035    -0.05529215     0.66332268    -0.17324755
O      -3.92863575     2.24370750    -3.98048194    -0.18636415     0.70564846     0.09500298
O      -3.80015014     2.51885382    -7.94395860    -0.31451479     0.13509999    -0.23754530
O      -7.87742156     2.38979533    -4.04908492     0.43711941     0.25031229     0.53632074
O      -7.87211224     2.38210882    -8.03943272     0.18286527    -0.80694202     0.55782890
O      -4.00308345     6.47539811    -3.78360944     0.55919523     0.44132089    -0.95324576
O      -3.92388446     6.41922719    -7.76385157    -1.19377601    -0.10559757    -1.02932955
O      -7.85946620     6.28058713    -4.00935812    -0.39811931     0.73207192     0.16128155
O      -7.89189958     6.28662508    -7.91621855     1.05194205     0.52164147    -0.19205304
O      -3.75467473     4.46004279    -1.94217247    -0.46699524    -0.35819390     0.66757800
O      -3.82559917     4.33242948    -5.82153138    -0.33019341     0.27082874    -0.45807163
O      -7.88224927     4.40491432    -9.91820941     0.05263964    -0.15456429     0.04270052
O      -7.97354330     4.42462599    -5.99615023    -0.22389450    -0.29713779     2.00056043
O      -7.83783580     8.69934736    -2.01581635     0.39921593    -0.05257593    -0.16742013
O      -8.03249089     8.67664522    -5.94146880     1.43721744    -0.24170181     0.20192568
O     -11.58295457     8.73104956    -6.06609396    -0.66054289     0.31163045     0.15913254
O      -7.53447858     0.07500248    -9.89640878    -2.05708926    -0.14430198     0.28244524
O      -1.98956988     4.07563262    -4.09597219    -0.05487535    -0.41070508     0.78157302
O      -9.78381918     4.68375450    -3.91370119    -0.19691785    -1.01820157    -0.35243249
O      -5.91160624     4.48792659    -3.98508862     0.79908584    -0.29065141     0.09747583
O      -5.84440206     4.23812375    -7.87328172     0.50103359     0.87114312    -0.45237744
O      -1.91074626     0.13861690    -4.06400278    -0.21278441     0.67839712     1.49145833
O      -5.88807923     8.53610185    -8.01162825     0.02086735    -0.05573305     0.38172984
O      -9.86710646     8.38462867    -4.02352085     0.44255711    -0.14408146    -0.22451779
O      -5.65542998     0.57362693    -8.13114879    -0.23842862    -0.36071477     0.71412615
