# total energy = -631.37834715 eV

CRYSTAL
PRIMVEC
        0.00285542     0.02004370    -7.95977623
       -7.82940539     0.00763210    -3.98158109
       -3.91729101     8.74642787     0.01461334
PRIMCOORD
56 1
Li     -3.94267293     2.31487152    -2.01617686     0.03665340     0.06466032     0.27932236
Li     -4.02100904     2.50002552    -6.00888270    -0.23482222    -0.99728327     0.25375053
Li     -8.03395747     2.18584012    -9.94790257     0.75581950     0.24446356    -0.01578976
Li     -7.87211225     2.01070842    -5.82100664     0.09260654     0.06964681    -0.43293206
Li     -3.85522513     6.60032231    -1.91037346    -0.29287566    -0.04677592    -0.45261064
Li     -3.92972366     6.55088378    -5.85130374     0.24445770    -0.00500437    -0.63794089
Li     -7.90913216     6.48418319    -9.83144094    -0.04147613    -0.26548594    -0.37554707
Li     -7.91326668     6.61223387    -5.82827225     0.41777391    -0.20880413    -0.12949768
Ti     -2.01656045     2.28274835    -4.06569737    -0.45575677    -0.79200791     0.58179880
Ti     -5.78792775     6.68356710    -7.97335088    -0.82407010    -0.45487956    -0.12687472
Ti     -7.73318574     4.35344039    -7.63067502    -0.40540277    -0.53819299    -2.00305594
Ti     -7.71315086     4.31091242    -3.72090319    -0.19191290     0.23552205     0.63126130
Ti     -3.72736602     4.40999942    -7.73955314    -0.12337924    -0.78489514    -0.42645022
Ti     -3.96362197     4.56245774    -3.79295245    -0.20787116    -1.10389966    -0.44831682
Ti     -6.09733810     8.72263014    -2.00516119    -0.32336747     0.47360136    -0.39795629
Ni     -5.87551874     2.39366698    -8.03921474     0.10387512     0.22643415     0.15240155
Ni     -5.88226247     2.04663931    -3.99357214    -0.64153863    -0.00353863    -0.09080258
Ni     -9.77408890     6.60634813    -7.88815491    -0.11573474     0.10734431    -0.44992236
Ni     -9.76153358     6.44836345    -4.01267672     1.00732315    -0.99294346     0.53019186
Ni     -1.90470130     2.08924502    -7.91039152    -0.81920643     0.04474190    -0.48014170
Ni     -5.86583182     6.67575434    -4.00967830    -0.60401302    -0.66358073     0.72289489
Ni     -5.89188124     8.68038726    -5.84817704    -0.70107410     1.57727173    -0.18184071
Mo     -6.01257535     0.08309392   -10.22027313     0.82031756    -0.73138025    -1.19448904
Mo     -9.80870947     8.74004522    -6.33451012     0.45227656     0.35303656    -0.54031318
O      -1.95298144     1.90220624    -1.87792380    -0.02550422    -0.07555274    -0.06853337
O      -2.09734250     1.80760551    -5.95770091     0.59926489     0.15494075    -0.24105554
O      -5.86530243     6.75052793    -2.05525368     0.06819559     0.57454972     1.36004714
O      -5.89675760     6.92674153    -5.85403140     0.09941124    -1.19991036    -0.55367996
O      -5.89617364     1.97559484   -10.11745316    -0.13343111     0.46898501     0.81782512
O      -5.93779996     1.94027614    -5.84982397     0.44775292    -0.45331140    -0.40211899
O      -9.81439075     6.87503209    -9.85043684     0.54891113    -0.08872156     0.95220676
O      -9.79916751     6.78172422    -6.00117833    -0.05342221     0.05897046    -0.23123978
O      -4.09097674     2.39813254    -3.95187697     2.22677412     0.73958016    -0.23700625
O      -3.88105820     2.47724356    -8.07388332     0.07107291     0.50465142     0.73507603
O      -7.75187700     2.27565619    -3.95484561    -1.06496495     0.97558510     0.42643274
O      -7.91410497     2.31052470    -7.96056687     0.47103280     1.08222874    -0.05978642
O      -3.84460954     6.48344210    -4.05177194     0.21812215    -0.25108242     1.01167261
O      -3.86843656     6.40656656    -7.93625640    -1.00705160    -0.53456961     0.09346756
O      -7.80656690     6.30075973    -3.89540168    -0.37381913     0.32011456    -0.35114461
O      -7.82928542     6.27619389    -7.88466486     0.64530912     0.90811063    -0.20400185
O      -4.07730929     4.50189434    -2.05719115     0.32731143    -0.15129591     0.62327810
O      -3.94229607     4.31401861    -5.98330736     0.33118716     0.82620277    -0.13072056
O      -7.90195451     4.41985342    -9.89132528     0.19622663    -0.60761457    -1.20663140
O      -7.96056671     4.45698393    -5.95110791    -0.02886121    -0.33572695     1.78425275
O      -3.99519690     0.03443946    -9.88485708     0.23457930    -0.14232621    -0.15229627
O      -8.03149203     8.71041769    -5.94225900     0.20139593    -0.18681993    -0.40002275
O     -11.62142612     8.71367303    -6.03442701     0.25216088    -0.20472952     0.34117342
O     -11.67727549     8.65611612   -10.10530256    -0.64912917     0.86232201     0.55075916
O      -1.98229997     4.12717937    -4.03235377    -0.56662521     0.08460357     0.20365467
O      -9.70313833     4.48838892    -4.07749580    -0.56191974     0.64460301     0.42566319
O      -5.88725425     4.67842730    -4.19706322     0.36961413     0.21717842     0.61241928
O      -5.85355187     4.30494915    -7.92208739     0.31763439     0.51199639    -0.01604587
O      -1.96783860     0.23069147    -3.86679822    -0.12836746    -0.61614971    -0.88538682
O      -5.77817596     8.47958488    -7.92019084    -0.39954911    -0.19668769    -0.44041500
O      -9.65719691     8.27071645    -3.98369194    -0.44994220     0.70104604     0.12154221
O      -5.85762134     0.57538656    -8.15269180    -0.24801371    -0.45794232     0.90477708
