# total energy = -630.87536443 eV

CRYSTAL
PRIMVEC
        0.00279571     0.02951795    -7.98606283
       -7.83802570     0.01298533    -3.99532603
       -3.92160916     8.71933433     0.00634407
PRIMCOORD
56 1
Li     -4.01759730     2.28032999    -1.94355679     0.11340688     0.19925980    -0.01680710
Li     -3.97771284     2.31684046    -6.05720311     0.25552237     0.31025122    -0.01024298
Li     -7.77030268     2.07612769    -9.94337032    -0.58162628     0.43810241    -0.23097147
Li     -7.92825335     2.38447378    -5.97868637     0.41414073    -0.10323919     0.21633356
Li     -3.89036943     6.33212891    -1.94620168     0.13752424     0.06125748    -0.09979795
Li     -3.98132950     6.67676076    -5.91812630     0.08291032    -0.04717164     0.01982532
Li     -7.98864626     6.57204977    -9.77696171     0.75195496    -0.34529602    -0.91014700
Li     -7.95121650     6.27691106    -5.87574997     0.31042404     0.07754906    -0.00171047
Ti     -2.06844509     2.16049662    -3.99929697     0.81553161     0.31962515    -0.30269461
Ti     -5.87312802     6.74045505    -7.83447308    -0.29293292     0.17909584    -0.99433014
Ti     -7.88305980     4.43395640    -7.77785532    -0.07676451    -1.36738903    -1.31887155
Ti     -8.00854896     4.31807597    -3.75941355     0.54964248    -0.25439028     2.28692673
Ti     -4.09532403     4.37922939    -7.83363850     1.10269391    -0.83397849     1.65910629
Ti     -4.01149288     4.47046761    -3.89584498    -1.74457660     0.36752676     0.81118789
Ti     -5.54582074     8.72425128    -2.03475442    -0.14582591    -0.40601638    -0.11717711
Ni     -6.03018233     2.12669279    -7.96060738     1.12704664     0.04933353     0.71449896
Ni     -5.91016025     2.30569104    -4.13531169     0.36798328     0.87512498     0.42832114
Ni     -9.85428805     6.42952784    -8.06048358    -0.12889942    -2.12739133     0.25233761
Ni     -9.76082191     6.51403339    -3.88735992    -1.51942873     0.31865747    -1.65304147
Ni     -1.98145785     2.01930513    -7.91895825     0.17549899     1.47395655    -0.50450319
Ni     -6.02582871     6.70722460    -3.91230849     0.50551713    -0.43979671    -0.28899782
Ni     -1.95511499     0.08210041    -5.92819496     0.74887393     0.89162006    -0.43847067
Mo     -9.73642491     8.72070180   -10.30445462    -2.27508918    -0.10457205     0.17139250
Mo     -5.70910141     0.05307829    -6.35049612    -0.01774704     0.57337377     0.44824731
O      -1.97674264     1.88239935    -2.03352734    -0.65869797     0.64255293     0.64184123
O      -1.78385898     1.95703388    -5.99799811    -1.59584566    -0.89801173     0.20589828
O      -5.80990234     6.78067885    -1.93625147    -0.53205457     1.10490176    -0.63222492
O      -5.97641788     6.96072628    -5.94132413    -0.26802710     0.03574292     0.90815556
O      -6.02787846     1.85836832    -9.77816132     1.82782235    -0.17659299    -0.16248038
O      -5.90834706     2.04463689    -6.05096503     0.10185765    -0.89946165    -0.64998604
O      -9.89940178     6.69223979   -10.09692521     0.57607787     0.76219791     1.01858191
O      -9.80063426     6.88414665    -5.83625654     0.31587276     0.66434214     0.58138397
O      -3.95824612     2.43532920    -4.06229596     0.33377237    -0.01592480     0.26807490
O      -4.07767470     2.37726859    -8.03220170    -0.84024558     0.36385378     0.21754575
O      -7.74699518     2.44535407    -3.99375086    -0.43320602    -1.49920255    -0.62707926
O      -7.95165034     2.42168300    -7.99950589     0.36147617     0.09795522     0.62731065
O      -3.97425106     6.44249480    -4.03759351    -0.23755862    -0.89568978     0.46457213
O      -3.99519106     6.34919367    -7.95161913     1.51757206     0.58608883     0.10221389
O      -7.93817617     6.24237434    -3.93590437     0.75769741     0.95174826    -0.07297865
O      -7.86820739     6.31825834    -7.96263223    -0.63082613     1.19165586     0.39997760
O      -3.82226120     4.42797054    -2.05935530    -0.23146780    -0.34901922    -0.26716342
O      -3.92880208     4.36637562    -5.98942644     0.34577510    -0.04787922    -1.44922935
O      -7.67746179     4.29574052    -9.94180967    -0.22697285     0.43392095    -0.74804811
O      -7.71758532     4.31014438    -6.03002286    -0.50711294     0.32591318     0.77459061
O      -7.99596116     8.68560432   -10.02518942     0.65151491    -0.16454940     0.35166887
O      -3.94189118     0.25987916    -6.16172637    -0.15769090    -0.48649326     0.23982160
O      -7.64921597     0.21179138    -6.14256936    -0.43650372    -0.65569843     0.21901812
O      -7.74535704     0.06095872   -10.04606303     0.10761369    -0.91738233     0.09968134
O      -9.79833033     4.39222457    -8.01951114    -0.57366907     0.24740650    -0.14618109
O      -2.01872433     3.98464440    -7.90334671    -0.19203363    -0.44643105    -0.35161275
O      -5.92735098     4.19920405    -4.09133007     0.83837678    -0.16674469     0.19882492
O      -5.90412241     4.85187743    -7.82585404    -0.22488298    -0.97230999    -0.61331249
O      -2.03514229     0.28119452    -3.92589212    -0.02125170    -0.45350419    -0.28173813
O      -5.79989426     8.71506861    -8.05166534    -0.10556726     0.17058483    -0.22916577
O      -5.76610419     0.40471807    -4.07415491    -0.42201448     0.04472944    -1.08778362
O      -9.69287739     8.14062898    -8.06621026    -0.40947119     2.02874071    -0.09648687
