# total energy = -630.28391924 eV

CRYSTAL
PRIMVEC
        0.00279571     0.02951795    -7.98606283
       -7.83802570     0.01298533    -3.99532603
       -3.92160916     8.71933433     0.00634407
PRIMCOORD
56 1
Li     -3.97418594     1.90851074    -2.09591001     0.02311114     0.81356394     0.45799265
Li     -3.86391362     2.29081017    -5.94214802    -0.74970508     0.21962156    -0.88629673
Li     -7.63496476     2.25806289   -10.03484802    -0.98027503     0.20491672     0.12591755
Li     -7.98111411     2.44536875    -5.95890734     0.23774640    -0.27850891     0.00104815
Li     -3.98781181     6.65894522    -1.85384176     0.93489049    -0.15990786    -0.71468633
Li     -4.05071487     6.57589606    -5.91623142     0.74557171    -0.21026596     0.14234995
Li     -7.80660057     6.77038644    -9.75909056    -0.50476466    -0.05466439    -1.35494799
Li     -7.81371913     6.56489608    -5.84344286    -0.18023135    -0.24560940    -0.18694966
Ti     -2.01106521     2.15653458    -4.19866864    -0.20001040    -0.29427951     0.83845497
Ti     -5.90853595     6.50896015    -7.98047225     0.38698662     0.42878366     0.36207737
Ti     -7.84618013     4.36401389    -7.77608144    -0.84092448     0.71273799     0.16424141
Ti     -7.81882160     4.37413936    -3.66317163     0.23429285    -0.16222052     0.63935857
Ti     -3.84114293     4.41259785    -7.71943096     0.15037433    -0.11694803    -1.32219764
Ti     -4.07380037     4.43558739    -3.67535006     0.54498448     0.15764273    -0.33596419
Ti     -1.88655244     0.04194365    -1.89611808     1.36560308     0.68913809     0.20951829
Ni     -5.88091385     2.31672032    -7.97625800    -0.54195303    -0.63792361     0.73697373
Ni     -5.94570831     2.22205072    -4.15046194     0.95927134     1.33395794     0.01721203
Ni     -9.89113030     6.37405862    -8.09592801     0.69586288    -0.40924582     0.65224667
Ni     -9.75210027     6.49477866    -3.99754975    -1.20094084    -0.11156537     1.19117738
Ni     -2.06075551     2.22743868    -7.96463767     0.75738351    -0.06972455    -0.79569673
Ni     -5.94586248     6.70813973    -3.97178336     0.45284233    -0.44650354    -0.23485033
Ni     -1.87917062     0.03837043    -5.97233234    -0.49454306    -0.61536490    -0.53805692
Mo     -5.95046367     0.04088257   -10.33282055     0.72631882    -0.88439266     1.94159730
Mo     -9.70643111     8.74054429    -6.28517671    -1.26176842    -0.05578086    -1.88507717
O      -2.04265125     1.96216525    -1.87541187    -0.15970857    -0.10329445    -0.44207790
O      -1.99639741     1.88483857    -6.08906393     0.46749324     0.25972666     0.48556362
O      -5.80332910     6.81716157    -2.10295328    -1.35129850     0.21619806     1.10160077
O      -5.86278520     6.90440964    -5.96350587    -0.40416083     0.06559911     0.45847023
O      -5.87587115     1.95396113    -9.81346173     0.16524383    -1.21442673    -0.52787308
O      -5.89819353     2.01081954    -6.13264512     0.03798391    -1.09782088     0.48020666
O      -9.95281624     6.75847586   -10.05654540     1.26194296     0.82153862    -0.66535426
O      -9.80168524     6.79567597    -5.83849257     0.09711722     0.57690871    -0.03822937
O      -3.98223827     2.42853581    -4.13701365     1.00098824    -0.16733249     1.06054451
O      -4.07913504     2.49082259    -7.90789992     0.84354433    -0.43946964    -0.22287431
O      -7.77236394     2.48090068    -4.11613045    -0.72247782    -1.08240626     0.74375359
O      -7.97029521     2.37967551    -7.95791303     0.75237848     0.80544789    -0.01029612
O      -3.91950753     6.36168786    -3.93092275    -1.21329549    -0.41898876    -0.31228538
O      -3.92873410     6.39437614    -7.96609400     0.06154021    -0.36770014     0.00320704
O      -7.90847304     6.27096496    -3.77649158     0.82551882     1.13684529    -0.97141574
O      -7.80751239     6.46354117    -7.99454622    -0.19333143    -1.18714668     0.39642457
O      -4.11471243     4.36341099    -1.95903274     0.76902383    -0.06128207     0.60941758
O      -3.64751006     4.44895074    -6.01367971    -0.92337543    -0.04232839     1.07361780
O      -7.70454670     4.25084150    -9.87150998    -0.29730860     0.04433370    -0.76609620
O      -7.67368801     4.45734664    -6.02706502    -0.24845871    -0.03282776    -0.26594921
O      -4.06509959     0.04280595    -9.96018167    -0.07741991    -0.54573134    -0.22696047
O      -7.93997083     8.63087961    -6.00914886    -0.22963530     0.79509849    -0.22433366
O      -7.78881585     0.02640331    -6.07124098     0.25012159     0.23128618     0.33892174
O     -11.63727359     8.74639593   -10.02611194    -0.15403441     0.47324781    -0.06555277
O      -9.83999496     4.49142040    -7.88396568     0.32940220    -1.00365859    -0.37265537
O      -1.88550541     4.15179128    -7.95048551    -0.56833778     0.15612760    -0.63492511
O      -5.88667847     4.16557799    -4.10279612    -0.75415002    -0.41724989    -0.13215611
O      -5.91219676     4.57466662    -8.11128040     0.81432796     0.97664587     0.98506079
O      -1.89520233     0.33374367    -3.97248345    -0.72708066    -0.03093974     0.04234526
O      -5.72955308     8.55541384    -7.97297237    -0.75332700    -0.20586909    -0.71467599
O      -5.84264669     0.28434006    -4.10001925    -0.34148828     0.44317646    -1.16568649
O      -9.90340187     8.14485071    -8.04117229     0.41424665     1.49739444     0.74276901
