# total energy = -630.57596047 eV

CRYSTAL
PRIMVEC
        0.00279571     0.02951795    -7.98606283
       -7.83802570     0.01298533    -3.99532603
       -3.92160916     8.71933433     0.00634407
PRIMCOORD
56 1
Li     -3.73947006     2.32625815    -2.03750560    -1.10842773     0.13666707     0.25068412
Li     -3.89530185     2.21319639    -6.04671371    -0.05752516     0.11727109     0.27960432
Li     -7.88843337     2.49455174    -9.95716440     0.52030159     0.18325430    -0.34391541
Li     -7.94051733     2.31033625    -5.86735633     0.86775533    -0.11804259     0.00747507
Li     -3.89689292     6.24006940    -1.99545846    -0.06324021     0.60912209     0.31664075
Li     -4.01064060     6.32609163    -5.85469530     0.33330390    -0.08861131    -0.59737612
Li     -7.75883388     6.44668923   -10.24113572    -0.51870990     0.32962593     1.74179145
Li     -7.84833965     6.48457714    -5.94323874     0.23772765     0.09332897     0.83445679
Ti     -1.89677539     2.17760348    -3.99664289    -1.14097425     0.67897813    -0.95187910
Ti     -5.98062114     6.69983697    -8.01212592     2.53551272     0.36684867    -0.03596288
Ti     -7.76512306     4.39716048    -7.65295495    -1.07167577    -0.41118044    -0.70382154
Ti     -7.87791491     4.45014817    -3.86295453     0.80609438    -0.55369278     1.84950046
Ti     -3.89155566     4.35096648    -7.77963734     0.62535542     0.44408423     0.86016759
Ti     -3.95313838     4.45358051    -3.84197981    -0.57840524    -1.65520270    -0.64086109
Ti     -6.10378695     8.72430451    -2.08724959    -1.61449356    -0.80321090     1.08258286
Ni     -5.80985150     2.38089686    -8.08068823     0.01662342     0.36519311    -0.14769288
Ni     -5.85465662     2.16294766    -4.03562369     0.13805980     0.01854512     0.06879149
Ni     -9.75824780     6.55778259    -7.90063665     0.00793186    -0.17350354     0.24404075
Ni     -9.83557484     6.53702541    -4.04374287    -0.02649778    -0.26696435     0.78856959
Ni     -1.89982269     2.33951869    -7.82541544    -0.11135239    -0.20726857    -0.46101504
Ni     -5.85583293     6.63636391    -4.00763490    -0.62362111     0.40217684     0.85894954
Ni     -5.93302848     8.66411390    -5.97206930    -0.11489201    -0.60778879     0.48244969
Mo    -10.03890447     8.66942467   -10.16305749     3.81392402     0.62721626    -0.49254950
Mo     -9.74995153     8.65461488    -6.36309601     0.47907546     0.63515893    -0.38269896
O      -1.90145140     1.92646112    -2.09330563    -0.18202116    -0.26280170     0.74070217
O      -1.93486135     1.78175083    -5.96384434    -0.14030679     0.08250072    -0.32419184
O      -5.89893058     6.80988335    -1.99373684     0.84091350    -0.96467708     0.11646661
O      -5.85982784     6.78698266    -5.81843396    -0.06724081     0.62747384    -1.86459451
O      -5.83613305     1.96976637   -10.08381376    -0.11165870     0.05274127    -0.46498498
O      -5.81616786     1.91758460    -5.94589855    -0.11712317    -0.43055065     0.04802155
O      -9.74956334     6.84328040    -9.77688276    -0.81779920     0.02709494    -0.25346586
O      -9.71182654     6.70756263    -5.97952030    -1.22631123     0.11277393    -0.44050721
O      -3.93684865     2.39904196    -4.08961853     0.55112476     0.09364718     0.79231477
O      -3.82141044     2.45852773    -8.03753973     0.05483937    -0.57196218    -0.10748184
O      -7.83441889     2.42649434    -3.95724642     0.13943690     0.31660767     0.02636898
O      -7.77718406     2.51107165    -8.00490982    -0.01334190    -1.07770786    -0.02480963
O      -3.82870709     6.37366561    -3.99782973     0.68039185     0.04523909     0.44955185
O      -3.97528496     6.27857880    -7.92485669    -0.17277615     0.81399972    -0.46560457
O      -7.97184611     6.41240881    -3.96659009     0.19246534     0.13121915    -1.43165025
O      -7.76580051     6.34011668    -7.84579809    -1.62698740    -0.07076558    -0.55775523
O      -4.01481535     4.29691966    -2.09257097     0.18452375     0.19185530     0.37730262
O      -3.88131109     4.24184467    -6.01150293    -0.28488404     0.45068516     0.16632574
O      -7.90901884     4.54481315   -10.03458874     0.02575712    -0.64768420    -0.29875743
O      -8.05701000     4.36943305    -5.91735239     0.35511516     0.02495837    -0.56493143
O      -7.90666132     8.51558940    -9.94182311     1.27855417     1.38731338    -0.43021289
O      -7.90352283     8.39149058    -6.02928370    -0.36581875     1.72512195    -0.32580212
O     -11.51764649     8.60591726    -6.24020690    -0.36056999    -0.01000162     0.76587143
O     -11.72401610     8.69112628   -10.04189455    -2.24027703    -0.08372100     0.33360840
O      -1.95724756     4.05066693    -3.99433172     0.01307220     0.56839486    -0.23674531
O      -9.80945931     4.56834410    -3.96849941    -0.91554550    -0.25470436    -0.57447401
O      -5.95841082     4.75272693    -4.14085092     1.22469476    -0.39455496     0.12134434
O      -5.90916740     4.36088038    -7.98963816     0.62509756    -0.11658454     0.02868002
O      -1.95169254     0.10885645    -3.92511027     0.15988027    -0.23647356    -1.12644348
O      -5.85264146     8.48836540    -7.97591581     0.00712291     0.39393106    -0.31617323
O      -5.79416814     0.18499323    -3.99365402    -0.66415779    -0.57739544     0.18170293
O      -5.75271588     0.56599159    -8.19202705    -0.26011343    -0.52393004     0.73377616
