# total energy = -630.12350165 eV

CRYSTAL
PRIMVEC
        0.00285542     0.02004370    -7.95977623
       -7.82940539     0.00763210    -3.98158109
       -3.91729101     8.74642787     0.01461334
PRIMCOORD
56 1
Li     -4.05052320     2.31343044    -1.88478871     0.32451242     0.16065967    -0.17088326
Li     -3.80703112     1.94806073    -5.97418874    -0.79476234     0.80512067    -0.27422607
Li     -7.81254790     2.31879204    -9.94233656    -0.33984879     0.05407684    -0.05729591
Li     -7.80517867     2.16755177    -5.96394574    -0.44227580    -0.14652757     0.24090984
Li     -3.74915406     6.39135734    -1.97679820    -0.07585625     0.43208852     0.46170773
Li     -4.02298644     6.48582150    -5.73618315     0.42143282    -0.10279421    -0.56082838
Li     -7.72605268     6.25551502    -9.84885169    -0.44874653    -0.14963002    -0.63779723
Li     -7.87183667     6.44727895    -5.86281687     0.41794078    -0.11656520     0.19587444
Ti     -2.04388843     2.03511546    -4.03022995     0.65113259     0.94812838     0.57926468
Ti     -5.75244824     6.66301335    -7.96512749     0.32011492    -2.49440225     0.61788718
Ti     -7.92462582     4.33494144    -7.73760757     1.15346666    -0.31596389     2.04445845
Ti     -7.66822805     4.29515552    -3.77784173    -0.75673311     0.54379335     0.19516963
Ti     -3.75675865     4.33356246    -7.55692323    -0.00040550    -0.41522190    -0.37997215
Ti     -3.85514055     4.47388547    -3.68212402     0.12241218    -0.57317820    -0.69163033
Ti     -6.31357604     8.67237436    -2.02827709     3.52903771     1.49744825    -0.21290402
Ni     -5.97931488     2.41016488    -7.94123290     1.41901628     0.57455219    -0.35967628
Ni     -5.86235990     2.31071817    -4.19027666     0.33412779    -0.32591039     1.47437826
Ni     -9.71263312     6.54501699    -8.00017735    -0.50333712     0.39802744     1.70319062
Ni     -9.68724295     6.45269334    -3.83494690    -0.34232258    -0.86912946    -0.71140312
Ni     -1.94529911     2.20881365    -8.00647148     0.83038001    -0.31220621     0.29375239
Ni     -5.82326026     6.62675181    -3.94112479    -0.57507959    -0.01446667    -1.08560473
Ni     -5.94308555     8.74894739    -5.90896143     0.46836977     0.04351296    -0.47703256
Mo     -6.06903396     0.02620756   -10.20817601    -1.69569916     0.27722276    -1.35109186
Mo     -5.83670820     0.03204551    -6.44570532    -2.44353258    -2.24912001     2.79804682
O      -1.95879015     1.89395034    -1.89647195    -0.32116157    -0.77544225    -0.84564716
O      -1.93305547     1.93623490    -6.00848689    -0.06068705    -0.97519697     0.12393398
O      -5.82081217     6.83112747    -2.10678096     0.03229146    -0.92459466     1.65256536
O      -5.87284549     6.87218524    -5.88749652    -0.44931076     0.56382651    -0.63432751
O      -5.93482096     1.94253039   -10.16315720     0.08396821    -0.06056615    -0.08141095
O      -5.85473022     2.04808865    -6.00979845     0.59573964    -0.12499696     0.31604501
O      -9.69355523     6.89562328    -9.77381811    -0.31030659     0.10624726    -0.40969711
O      -9.68178527     6.81514003    -6.12696621    -0.30919036     0.97691025     0.26226253
O      -3.92365137     2.43772615    -3.93799999    -0.68098473    -0.37627593    -0.68345757
O      -3.79128988     2.44648611    -7.95005401    -0.90002554    -0.17856199     0.33741603
O      -7.78104569     2.37886374    -4.01946077    -0.14239507     0.56509244     0.10239045
O      -7.89523037     2.35036013    -7.93342641     0.23104420     0.50010343    -0.26584250
O      -3.80146123     6.46309326    -3.90547436     0.41029413    -0.71058430     0.15565368
O      -3.81431476     6.23734756    -7.91727233    -1.27271675     1.67050084    -0.06625869
O      -7.79854779     6.52706628    -3.81698229     0.20570144    -1.50207318    -0.33686231
O      -7.83805681     6.24029062    -8.00142272     1.08557552     0.94892206     0.32762026
O      -3.87297996     4.41806736    -1.92932398    -0.44420704     0.01315706    -0.43833137
O      -4.03088944     4.50655030    -5.84538049     0.88172802    -0.08474126     0.59451751
O      -7.91323410     4.34104750    -9.92757891     0.58093110    -0.06994076    -0.40449001
O      -7.98931510     4.42128453    -5.89536117     0.26352853     0.05132289    -1.64278790
O      -4.08934088     0.15526759   -10.00616938    -2.32874492    -0.00976924     0.59824675
O      -4.02371287     0.12443239    -6.06276908     0.21057568    -0.52986622    -0.13746316
O      -7.62262612     0.12795185    -5.93543718     2.13220311    -0.57942231    -0.73988127
O      -3.94666785     8.71649290    -5.88694321     0.59529748     0.03456671    -0.66760506
O      -1.96879842     3.97842133    -3.92464508    -0.45557627     0.70509357    -0.40895773
O      -9.69132494     4.54883903   -11.84726475     0.02808881     0.66334148    -0.00624329
O      -5.81505866     4.62592900    -4.10718293    -0.32477351     0.01196579     0.85856285
O      -5.77993215     4.42655914    -7.83216685    -1.53910520    -0.71751513    -0.72916588
O      -2.07045768     0.12123795    -3.92227801     0.10245618     0.28852522     0.05488898
O      -5.79170373     8.41516734    -8.12130607    -0.38596366     1.12195261     0.91119322
O      -9.89110694     8.33939178    -3.97452315     0.39814768     0.60845520     0.48427369
O      -6.03490025     0.52524324    -8.11812175     0.62723012     1.03376701    -1.67125220
