# total energy = -630.58302871 eV

CRYSTAL
PRIMVEC
        0.00285542     0.02004370    -7.95977623
       -7.82940539     0.00763210    -3.98158109
       -3.91729101     8.74642787     0.01461334
PRIMCOORD
56 1
Li     -3.97316508     2.48349489    -1.92250770     0.17893821    -0.37512973     0.02841176
Li     -3.73071894     2.15180246    -5.98146456    -0.92312356    -0.32122391     0.36057331
Li     -7.79885732     2.45344284    -9.91585332     0.19913826    -0.83139136    -0.16596205
Li     -7.77340477     2.13527209    -5.79527542     0.08514599    -0.06984460    -0.97148679
Li     -3.91477162     6.50069740    -1.98167569     0.08355104    -0.26429000     0.22697605
Li     -3.76260974     6.51745952    -5.89192711    -0.73540574     0.10135766     0.51644547
Li     -7.84648153     6.35689089    -9.87684849    -0.07483009     0.25353617     0.00312804
Li     -7.77304564     6.43456186    -5.73756904    -0.03368408     0.19226207    -0.58275389
Ti     -1.80177616     2.19055391    -3.89046844    -0.55510630     0.32491080    -0.65707182
Ti     -5.90545466     6.84347919    -7.86554861     0.17059410     0.67644245     1.19782260
Ti     -7.72259424     4.36836788    -7.76854214    -1.12886288    -0.48314905     1.85674186
Ti     -7.94499086     4.38578889    -3.70068504     0.19301934     0.19440878    -1.00840060
Ti     -3.97536143     4.47785409    -7.61319767     1.00136808    -0.92476586    -0.18156891
Ti     -4.02383747     4.31125907    -3.74693137     0.23346659     1.14953111     1.04492494
Ti     -6.12104084     8.74987447    -2.05497049    -0.07128580     0.63543832    -0.96365906
Ni     -5.69990651     2.23556782    -8.04539554    -2.40602401    -0.44357359     0.70042882
Ni     -5.91017127     2.32906298    -4.05847372     0.08777104    -0.23449047    -0.45800433
Ni     -9.72857853     6.64991032    -7.89255211    -1.45162528    -0.55103758     0.27319372
Ni     -9.80625927     6.37132782    -4.04425076    -0.14593430     1.18274278    -0.23637565
Ni     -2.05270853     2.19847204    -7.94546757     1.49752665     0.00953170    -0.02457917
Ni     -5.79830355     6.49880965    -3.89217272    -0.53635720     0.24106320    -0.42828386
Ni     -1.96342946     0.08620222    -5.96562184    -0.08467380    -0.98607793     1.05217632
Mo     -9.92546810     8.72536245   -10.33778036     0.65177348     0.70068097    -0.60542391
Mo     -9.79738131     8.65085353    -6.33844829     1.11883285     0.84118618    -0.79333324
O      -2.01543826     1.99392595    -1.96382423     0.15974285    -0.98263883     0.42609179
O      -1.84048296     1.90066878    -5.96095717    -0.54198927     0.34040795    -0.37463067
O      -5.85462524     6.83157235    -1.82239082    -0.26714924    -0.18716139    -1.02695804
O      -5.82577190     6.93900440    -5.87037400    -0.35331534     0.07642567    -0.25527221
O      -5.86057952     1.90149860   -10.13475678     0.26052015     0.55937080     0.04331441
O      -5.84120300     1.94862240    -5.91272678     0.11114099    -0.22306523    -0.13908235
O      -9.75595678     6.92508710    -9.73363800     0.50765668    -0.01586023    -0.21950507
O      -9.79309019     6.74276296    -6.04767184     0.33935344    -0.06372839     0.40286933
O      -3.93940277     2.45658747    -4.10258514    -0.07395752    -0.31872959     0.81031725
O      -3.90439444     2.40679888    -7.86785022     1.03362393     1.17573280    -0.04924383
O      -7.84728109     2.47242690    -4.06363598    -0.25973439     0.14250578     1.24601759
O      -7.73642250     2.32843103    -7.89367325    -0.01781384     0.46045131    -0.35402066
O      -3.80246845     6.30377099    -3.93152939    -0.14629090     0.53108501     0.30611290
O      -3.93761483     6.49653411    -7.84770546    -0.73048352    -1.26147331    -0.35476889
O      -7.87767487     6.41124395    -3.88875894     0.28761718    -1.40679301     0.30724925
O      -7.88532522     6.33416999    -7.86663278     1.66781677     0.44501783    -0.74407355
O      -3.94337475     4.42494503    -1.92171440    -0.24298418     0.05322826    -1.42131053
O      -3.85935468     4.62976872    -5.83021040     0.23968209    -0.72236502    -1.46138440
O      -7.82628533     4.29894966    -9.87913184    -0.38030398     0.88583144    -0.21256836
O      -7.75249315     4.50369617    -6.01908559     0.25446014    -0.31494701     0.10009564
O      -3.97281135     0.06597837    -2.21512466    -0.44947699    -0.35064778     0.60037185
O      -4.07432712     0.04260875    -6.01224488    -0.03917509    -0.15947998    -0.00066478
O      -7.62460272     0.04848173    -5.97553505    -1.33059328    -0.08044489    -0.41281476
O      -7.71106815     0.07519182   -10.06752379    -1.23454532    -0.28520320     0.04520219
O      -1.90777867     4.04142829    -3.79290085     0.05966260     0.11128443    -0.90947392
O      -2.01035826     4.45407765    -0.21067117     0.07512850     0.37369882     1.20396198
O      -5.98109920     4.41457497    -3.97301983     0.82396706     0.28806520    -0.00950718
O      -5.79742610     4.19363501    -7.98185292    -0.09721836     0.45681063     0.08541278
O      -1.97611058     0.19425098    -3.95923715     0.64108297    -0.02540022     0.25365029
O      -6.02601521     8.66641153    -7.88710311     0.36377034    -0.49208774    -0.68244562
O      -9.94549192     8.35418541    -4.17894819     1.05981408    -0.21913423     2.09139776
O      -5.85316653     0.39329683    -8.19218540     0.53181801     0.55134606     0.79403192
