# total energy = -630.87553010 eV

CRYSTAL
PRIMVEC
        0.00279571     0.02951795    -7.98606283
       -7.83802570     0.01298533    -3.99532603
       -3.92160916     8.71933433     0.00634407
PRIMCOORD
56 1
Li     -3.96188259     2.30345040    -1.96065099    -0.00524797    -0.00659644     0.28642565
Li     -3.92159160     1.82852047    -6.06519968     0.05531164     0.36670517     0.40014985
Li     -7.89851230     2.18602597    -9.98177018     0.36224178     0.25314149    -0.16052624
Li     -7.79158094     2.18893708    -5.81637486    -0.17259194     0.18779497    -0.31809347
Li     -3.95994989     6.42778015    -2.03915455    -0.02298934    -0.06963866     0.00177991
Li     -4.00515378     6.57497613    -5.83969183     0.87352755    -0.35085234    -0.21091441
Li     -7.80688535     6.41393075    -9.96147282    -0.28191184     0.23340871     0.48528790
Li     -7.77709343     6.68465687    -6.02132948    -0.21518810    -0.43429386     0.56517534
Ti     -1.93356586     2.26073163    -4.03713084    -0.45395486    -0.21066280     0.11213489
Ti     -5.87762173     6.74819320    -7.97165602    -0.08753158     0.19183311    -0.32937313
Ti     -7.68640054     4.31646258    -7.71011281    -1.78596950     1.51049349     0.53528359
Ti     -7.90062884     4.45194066    -3.63175745     0.38942962    -0.46514767    -1.65332304
Ti     -3.88322509     4.45329468    -7.75050601     1.37816832    -0.91622004     1.64874739
Ti     -4.07644299     4.26052287    -3.78460084     0.00433260     1.66790348    -0.66402371
Ti     -2.28069721     0.05201181    -1.99770391     0.89355927    -1.37261416    -1.58556942
Ni     -5.79500002     2.36586644    -8.04390657    -0.48670546    -1.08570695     0.39008420
Ni     -5.86351211     2.19418664    -4.06603666    -0.79666200     0.07664638     0.97890703
Ni     -9.80537368     6.44320037    -7.89592337    -0.80077511     0.20282138     0.15445147
Ni     -9.72705628     6.55633812    -4.07209610    -0.11236047    -0.79537342    -0.16172684
Ni     -1.98666779     2.06179255    -7.96769547     0.27270311     0.79552095     0.40900370
Ni     -5.90142626     6.63970226    -4.01814947     0.93819331    -0.28686774     0.23011451
Ni     -1.92342751     0.04101280    -6.00144481    -0.63147046    -1.08221850     0.36712095
Mo     -9.91076409     8.70172084   -10.24573529    -1.66485446    -0.74974296    -0.42005915
Mo     -9.83326834     8.68516984    -6.34304461     0.71516545    -0.52122468    -1.24705454
O      -2.01299912     1.89019742    -1.98998119     0.24107487     0.91076051     0.82338859
O      -1.98625136     1.97626317    -5.95641985     0.50472878    -1.58955847    -0.94067287
O      -5.89036258     6.74389128    -1.95168107    -0.44383614     0.92141283    -0.22304565
O      -5.79023340     6.84349542    -6.03080053    -0.90129789     0.76034104     0.60447343
O      -5.92666219     1.88060517   -10.12954676     0.19965152     1.07127559    -0.10360795
O      -5.83648779     1.91330953    -5.86387298    -0.01160591    -0.16194083    -0.50987115
O      -9.77924642     6.89770826    -9.69551599     0.03490861     0.60985746    -0.29214022
O      -9.89479218     6.78413189    -6.06466163     1.07126096    -0.23712677     0.50776181
O      -3.92611701     2.30284612    -4.06829628    -0.54618758     0.54336058     0.57305576
O      -3.87558739     2.43399471    -7.83540063     0.14656922     0.53779920    -1.12109292
O      -7.90127092     2.49140334    -3.93441487     0.30617224    -0.37427939    -0.17491435
O      -7.86171715     2.45203415    -7.92774150     0.76279362    -1.48271526    -0.42049128
O      -3.87762395     6.34533316    -3.99798042    -0.14249814    -0.82535130     0.73996957
O      -3.95786400     6.36984424    -8.07207021    -0.52042037     0.48079784     0.28284866
O      -7.74551583     6.50295450    -4.01328794    -1.14201413    -1.16148052     0.52500073
O      -7.89215229     6.31975858    -7.89630054     1.31474124     0.08810387    -0.64652365
O      -3.81937382     4.34922928    -2.01974581    -0.50634039    -0.29775736    -0.41968780
O      -3.71398984     4.61622861    -5.97684386    -0.54908330    -0.46301010    -0.97928337
O      -7.81081254     4.40941824    -9.86590924    -0.11119119     0.30285560    -0.03784736
O      -7.80832090     4.46062154    -5.98747813    -0.19570219    -0.30928921     0.12126929
O      -4.08142683     0.05662266   -10.02818815     0.62637523     0.08993846     0.07785848
O      -7.90670731     8.62612346    -6.16901274     0.04170027     0.43165722     0.61499594
O     -11.57402668     8.72539832    -6.09259340    -0.70113623     0.30813371     0.55623475
O      -3.93679357     8.64265644    -6.24842126     1.10578326     0.78498779     0.76803532
O      -2.01647007     4.10828497    -4.03580432     0.38258665    -0.23437718     0.23745858
O      -9.72262002     4.73636265    -4.06142558    -0.66749206    -0.47497453     0.11026265
O      -5.98732324     4.51818980    -4.10622372     1.26533362     0.17111711     0.51304835
O      -5.82078650     4.27663258    -7.94051218     0.90781725     0.44331914    -0.27499018
O      -1.85057174     0.16111406    -3.87607923    -0.44641772    -0.14764872    -0.30850953
O      -5.95146878     8.60202795    -8.04393611     0.15359423    -0.50452996    -0.50443682
O      -9.70222837     8.36449227    -4.05709718    -0.26323262     1.09376804    -0.11415582
O      -5.84053620     0.50929722    -8.13214046    -0.35262466     0.47828954    -0.02667137
