# total energy = -630.50517800 eV

CRYSTAL
PRIMVEC
        0.00279571     0.02951795    -7.98606283
       -7.83802570     0.01298533    -3.99532603
       -3.92160916     8.71933433     0.00634407
PRIMCOORD
56 1
Li     -3.87874711     2.57255863    -1.91656821    -0.44090215    -0.92831161    -0.30529036
Li     -3.87147177     2.25378648    -6.00064269    -0.15508197    -0.05262365    -0.11784955
Li     -7.77347335     2.55552365    -9.94092141    -0.20716163    -0.82216299    -0.26493541
Li     -7.86079509     2.13067866    -5.95438044    -0.16233836     0.24185469     0.16058208
Li     -3.91645075     6.52652676    -1.98976297    -0.47548425    -0.06409992     0.03893502
Li     -3.88628177     6.31658058    -5.89728654    -0.32283090     0.07629373    -0.39109105
Li     -7.84922173     6.24390202    -9.92667988    -0.23326030     0.84642440     0.09774411
Li     -7.95366229     6.51376905    -5.84298111    -0.11831354     0.21716777    -0.57739339
Ti     -1.91664832     1.92496154    -4.03950205     0.48416427    -0.15848209     0.01426481
Ti     -5.84010649     6.51419464    -7.87542316     0.06479792     0.93758053    -0.15099556
Ti     -7.80429406     4.42985881    -7.77524379    -0.60865028     0.03757473     0.47267306
Ti     -7.62049969     4.45216983    -3.81188700    -1.23881493    -0.58533918    -0.13859215
Ti     -3.74514450     4.28559775    -7.83282457    -0.19104376     1.44491251     1.30195231
Ti     -3.87200015     4.37755606    -3.79418923     1.07389894     0.13979506     0.83408410
Ti     -2.22322697     0.02047809    -1.89920870     0.83629818    -0.42587148     0.95396337
Ni     -5.92645435     2.12831025    -7.87593177    -0.03445787     0.53227165    -0.82684645
Ni     -5.80859052     2.23884153    -4.15655191    -0.39866000     1.34133942     0.87457794
Ni     -9.92431908     6.44469839    -8.11098935     1.58302727    -0.52092600     0.57495880
Ni     -9.79480309     6.64384748    -3.93260434    -0.96434559     0.02759719     0.09268545
Ni     -1.93105866     2.34215957    -8.12480673     0.14810466    -0.93144054     1.18249437
Ni     -5.98724938     6.46079719    -4.01684319     1.02930663     1.81955796     0.61529885
Ni     -1.84017269     0.08510223    -6.06866685    -0.79008963    -1.16620964     0.90780749
Mo     -5.95347109     0.08955328   -10.19487927    -1.81675368     0.26976072    -0.67796989
Mo     -5.91401183     0.03343012    -6.32198621    -2.02604625     0.19257119    -0.60056063
O      -2.01357387     1.98415951    -2.02054816     0.01273539    -0.57133122    -0.22494875
O      -1.89094647     1.86909492    -5.99893222     0.06040098     1.00497284    -0.77105676
O      -5.90512703     6.79440368    -1.97495718    -0.06584826     0.12787928    -0.03928963
O      -5.90936280     6.87353730    -5.85688944     0.04436903     0.37445930    -1.73851955
O      -5.91353815     1.94508828    -9.75127425     0.31829386    -0.12448117     0.05394971
O      -5.95183346     1.99711856    -6.06137103     0.38351994     0.23816561     0.44594814
O      -9.82884509     6.81731250   -10.05995741     0.26149869    -0.08591256    -0.20085871
O      -9.96342329     6.91988238    -5.79079475     1.06979241    -0.31235432    -0.04621922
O      -3.78181912     2.34739743    -4.01855498    -0.71793094     0.62874980     0.22822949
O      -4.08485867     2.46246526    -8.02611077     0.69341888    -0.96876179     0.12854848
O      -7.85232591     2.49288063    -4.02893585     0.85585070     0.04814406    -0.14644250
O      -7.84940762     2.41107055    -7.93326860     0.00106035     0.48666840    -0.38668298
O      -3.94015944     6.31357220    -4.03896780    -1.14058866    -0.72567182     0.34706095
O      -3.91310778     6.42859786    -7.92773187    -0.20067838    -0.35924689     0.25265664
O      -7.91058694     6.48566965    -3.96074922     0.62614168    -1.81753828     0.22868497
O      -7.92858875     6.44872026    -7.96868670     0.58627133    -1.45083030     0.13847449
O      -3.80869622     4.40557224    -1.95653083    -0.74477839     0.23602827    -1.12373294
O      -3.96532813     4.21909635    -6.03915991     0.24716892     0.84360181    -0.29500645
O      -7.80717385     4.36838539   -10.01314781     0.07660272     0.69099566    -0.10344675
O      -8.03640623     4.37750793    -6.04410398     0.62066648     0.48284954     0.57053120
O      -4.04095185     0.04883856    -9.98357066     0.03197957     0.00723505    -0.31808532
O      -4.19412096     0.13779246    -5.93503630     1.01533333    -0.16114740    -0.13936317
O      -7.78657811     0.20360814    -6.00495727     0.60276472    -0.64067416     0.16803818
O      -7.77445433     0.08589108    -9.97880382     1.08568242    -0.39544278    -0.82509162
O      -9.82859381     4.50520364    -8.07224907     0.43471362     0.17430745    -0.39504707
O      -9.71246270     4.19735336    -4.00126277     0.01271820     0.33781699     0.02040654
O      -5.76004275     4.12934306    -4.00798978    -1.03995953    -0.23473165    -0.44712182
O      -5.85793722     4.65346528    -7.89111236    -0.75569318     0.52730672    -0.39448592
O      -1.78904578     0.11542135    -4.00319000    -0.76390725     0.80546429     0.37769162
O      -6.14994939     8.61701224    -7.96335689     1.09968083    -0.25016658    -0.40318723
O      -5.86372557     0.42571238    -4.00033471    -0.20318561    -0.49632736     0.16412957
O      -9.92890710     8.28625876    -8.12412800     0.33579453    -0.30889746     0.68342108
