# total energy = -631.12442308 eV

CRYSTAL
PRIMVEC
        0.00279571     0.02951795    -7.98606283
       -7.83802570     0.01298533    -3.99532603
       -3.92160916     8.71933433     0.00634407
PRIMCOORD
56 1
Li     -3.98283293     2.19094866    -1.80691646     0.06568944     0.20559147    -0.59051623
Li     -4.05287740     2.35302127    -5.92825832     0.25586610    -0.13170562    -0.37286364
Li     -7.68931446     2.15133799   -10.04832548    -0.91788598     0.41491935     0.25941359
Li     -7.98011406     2.07103640    -5.93424932     0.92020120     0.46453419    -0.13459054
Li     -3.87298288     6.66260075    -2.09743146    -0.30866204    -0.01951410     0.33477688
Li     -4.03433070     6.72512876    -5.84478164     0.36630114    -0.35898423    -0.29075850
Li     -7.90714512     6.26626089    -9.89081169     0.12767869     0.46161678    -0.11789297
Li     -7.86273371     6.55722873    -6.01220322    -0.10149853     0.00123682     0.40890283
Ti     -2.02923962     2.03321590    -4.04245461     0.68972173     0.71125853    -0.78897891
Ti     -5.81528449     6.44794455    -8.02720336     0.00609667     0.00876818    -0.30495769
Ti     -7.90389611     4.37727762    -7.70167223    -0.84799288    -0.76475309    -0.05787741
Ti     -7.71605357     4.39001030    -3.77710464    -0.53827757    -0.36521133     0.02645982
Ti     -3.69382068     4.33281990    -7.69374587    -0.01126154     0.47012448    -0.72954749
Ti     -3.90369171     4.32389647    -3.75096674    -0.09107891     0.61396215    -0.24368876
Ti     -2.11804980     0.06959835    -1.88572478    -0.32823558    -0.54073366     0.20716065
Ni     -5.96885640     2.52308429    -7.97278960     0.58409060     0.56986571    -0.38859945
Ni     -5.88914061     2.19613470    -4.05537922    -0.61911430    -0.07976380     1.26842355
Ni     -9.83785288     6.62644394    -7.95411936    -0.70162462     0.13539743     0.29112764
Ni     -9.70843917     6.53712317    -4.05541340    -1.16810222     0.40710583    -0.40677093
Ni     -1.89971668     2.10030323    -7.91482255    -0.85905821     0.02333332    -0.40354277
Ni     -5.89300198     6.50936465    -4.03092049    -0.23684456     0.57507717     0.31408006
Ni     -5.97100431     8.68952807    -5.99046180    -0.33123963     1.00896518    -0.27256456
Mo     -5.92065759     0.04723829   -10.27643137     0.27227511     1.17906226    -0.73697258
Mo     -5.85421825     0.05346664    -6.37601761    -1.01106517    -0.44660618     0.10325176
O      -1.99570559     1.98000863    -1.87330263     0.31066962    -0.27729770    -0.34890143
O      -2.03107470     1.85775934    -6.05746284     0.24043859    -0.60503878     0.77587378
O      -6.01999048     6.81603722    -1.92155260     0.63194011    -0.65700637    -0.84079553
O      -5.97812230     6.90708042    -6.02159274     0.39015316    -0.88004501     0.48455632
O      -5.85421111     2.07304345   -10.10833658    -0.40074761    -1.30351026    -0.46817151
O      -5.93640566     1.97621289    -5.85855806     0.24669746     0.07235100    -0.35175078
O      -9.72453792     6.95388643    -9.79324070    -0.27913756    -0.06959637     0.29985913
O      -9.78484219     6.81823155    -6.09343111    -0.08969524    -0.41355185     0.03611969
O      -3.98395135     2.34884982    -3.98921127     0.34363591    -0.48098474    -0.41529877
O      -3.85943282     2.44647461    -7.98662953    -0.28932116     0.64075180     1.15291036
O      -7.89227473     2.38569085    -4.06729208     0.78252333     0.25745224     1.06200911
O      -7.88815082     2.43021761    -8.05399494    -0.17531239    -0.23861272     0.21829643
O      -3.93405617     6.33633457    -4.01563515     0.42452430    -0.17589314     0.54316594
O      -3.93846865     6.37767949    -8.08593443     0.22085979    -0.41324811     0.59267234
O      -7.87636799     6.39590211    -3.91604077     1.07838112    -0.54462774    -0.49493529
O      -8.00524261     6.26765533    -7.94234480     0.82588963     0.33711148    -0.07844631
O      -4.10775325     4.17501639    -2.02974112     0.24329737     0.87752107     0.59104067
O      -3.94457406     4.41177716    -5.95186714     0.39225107    -0.25024379    -0.63673446
O      -7.64540305     4.42579184    -9.98291075    -0.49796392    -0.69501271    -0.53434588
O      -7.85755479     4.24136829    -5.97283025    -0.05111530     0.43132359     0.09944197
O      -3.96448071     0.17927430    -1.98965566    -1.62000361    -0.32169862    -0.16816718
O      -8.03108060     8.70089140    -6.11010720     2.36648452     0.12982914     0.37003250
O     -11.56610449     8.67108618    -6.11195346    -1.86954671     0.13942017     0.87738379
O     -11.65384572     8.72092622    -9.99220094     0.66880969     0.50685364    -0.50393837
O      -2.00727654     3.99983556    -4.03020572    -0.13850793     0.26916816     0.17248267
O      -9.69880728     4.67740903    -4.09904704    -0.54901545     0.01722347     0.61694974
O      -5.86380852     4.57891476    -4.20694774     0.00242216     0.09853142     0.44331255
O      -5.90666226     4.48150830    -7.88452227     0.43760422    -0.05849633    -0.24875441
O      -1.92418270     0.15314937    -3.81526228    -0.25581478    -0.13282334    -1.36573638
O      -6.07073427     8.37465048    -8.04083714     0.78320707     0.52445200     0.98050888
O      -9.72662512     8.42366867    -4.11991686    -0.24204814     0.37227348     1.63636232
O      -5.98621766     0.74349577    -8.02968038     0.53017184    -0.54475775    -1.93169684
