# total energy = -630.44901164 eV

CRYSTAL
PRIMVEC
        0.00279571     0.02951795    -7.98606283
       -7.83802570     0.01298533    -3.99532603
       -3.92160916     8.71933433     0.00634407
PRIMCOORD
56 1
Li     -3.94897129     2.50799556    -1.79096131     1.07277742    -0.04869799    -0.38068146
Li     -3.87713632     2.08776477    -6.04816957    -0.31260261     0.39371195     0.12563227
Li     -7.80366251     2.32036129   -10.02417359     0.13732701    -0.10253747     0.41874909
Li     -7.87707936     2.38577640    -6.06035076    -0.17999809    -0.20406884     0.72282222
Li     -3.81705281     6.20410210    -1.91037515    -0.03529218     0.49864741    -0.18285053
Li     -3.99112498     6.44229473    -5.83212397     0.06687934     0.38935015    -0.25214206
Li     -7.83391700     6.47745074    -9.95182104    -0.46804699    -0.08349558    -0.45816312
Li     -7.80160303     6.72113530    -5.92899942    -0.51608211    -0.40131838     0.04324651
Ti     -2.00438369     2.16329754    -4.02352007     0.32217169     1.25998750    -0.62220809
Ti     -5.86933391     6.74127404    -8.08439385    -0.07609570    -0.59583916     0.15578655
Ti     -7.72414817     4.41300358    -7.78828226     0.10493040     0.22148642    -1.37619339
Ti     -7.81551281     4.32394294    -3.86335421    -0.95454309     0.41078862     0.98550936
Ti     -3.89093478     4.43551866    -7.69478958     0.63745751    -1.17146753    -1.54327178
Ti     -4.04313138     4.34782109    -3.81286439     0.23234456     0.53003565     1.19178797
Ti     -1.93806047     0.01315491    -2.15926613     0.76960684    -1.50151915     0.50775591
Ni     -5.81715100     2.15900038    -7.99941635    -0.56127272    -0.41599677     1.54461682
Ni     -5.86583250     2.31212868    -3.96816612    -0.26572460    -0.55649499    -0.99741014
Ni     -9.85185338     6.33194875    -8.10267555    -0.10207971    -0.02886583     0.35186319
Ni     -9.79464299     6.73860203    -3.86565508     0.01452689    -0.06150064    -0.59043332
Ni     -2.00183416     2.04636850    -7.93552251     0.53528970     0.52169674    -0.86110127
Ni     -5.91807905     6.63627414    -3.98469937    -0.32588925    -0.02438850    -0.16930188
Ni     -2.06643412     0.03354773    -5.99867604     1.44456294    -0.21734260     0.12516238
Mo     -5.81870150     0.10709399   -10.15068550    -1.51480172     0.62104669    -2.17800026
Mo     -9.81841962     8.74012966    -6.28411920    -0.74229538     0.26353983    -0.32848310
O      -2.04250111     1.85273213    -1.98208826     0.14931079     1.12701671    -0.53056448
O      -1.80579567     1.83923138    -6.04272365    -1.48443136     0.30004594     0.71176572
O      -5.90969586     6.67575793    -2.08330721     0.00876825     0.52967233     1.08238773
O      -5.95103875     6.94512361    -5.91594362     0.22112355    -0.42694539    -0.12573168
O      -5.60839061     2.02371060    -9.74660055    -2.00609054    -0.49825362    -1.44791566
O      -6.05603728     1.96978911    -6.16224145     0.67598629    -0.62024363     0.84097062
O      -9.89210713     6.88127589   -10.06906523     0.44821347    -1.29428131     0.85854351
O      -9.76573096     6.95499482    -5.66350390    -0.48183906    -0.01891963    -0.69794543
O      -3.90650646     2.45141029    -4.04802263     0.10987272    -1.53816539    -0.27291400
O      -3.99449400     2.34032451    -7.94579643     0.31894044     0.63216439     0.81438729
O      -7.78943625     2.33671931    -3.92013519     0.20736753     0.79661687    -0.69454912
O      -7.83207083     2.47443054    -8.03390142    -0.29650016    -0.30304365    -0.01930280
O      -3.94885542     6.23337520    -3.88635848     0.18541718     0.97213810    -0.75281067
O      -3.89181955     6.35557980    -7.91712407    -0.12054000     0.81167959    -0.20458193
O      -7.94860580     6.36281552    -4.00116014     0.87094290    -0.47207349     0.02427742
O      -7.87319086     6.40274743    -8.02637806     0.24798936    -0.37765300     0.32787408
O      -3.96217206     4.33205373    -2.00303399    -0.19339959     0.16235104    -0.69555279
O      -3.83767774     4.42744052    -5.98381029     0.03723791    -0.11004008     1.34060626
O      -7.97082829     4.51267764   -10.05530858     0.44484720    -0.60864257    -0.70306496
O      -7.93532813     4.41329530    -6.07903200    -0.28958636     0.09130636     1.30933451
O      -7.95028229     8.61502657   -10.02233766     1.55219361    -0.21179633     0.62059612
O      -4.09216947     0.15547732    -6.11414318    -0.19177304    -0.21310151    -0.25211311
O      -3.98022486     8.62949766    -2.00591446     0.95209685     0.54823030    -0.57880588
O      -7.61548182     0.07968403    -9.92434756    -0.66448850     0.42053362    -0.18063423
O      -2.04561274     4.23307032    -4.04448003     0.99816501     0.21189963    -0.00560499
O      -2.03741626     3.88194161    -0.15455394     0.91230468     0.04391836     0.55839906
O      -5.90443156     4.20786263    -4.29439734    -0.74043118    -0.36524774     0.98170359
O      -5.80690668     4.68218205    -7.95727377    -1.09871135     0.37106935    -0.05015027
O      -2.08051621     0.21062060    -4.01614566     0.14748152     0.91919801    -0.52272678
O      -5.82485644     8.61156131    -8.08688123    -0.50400229     0.11889831     0.69402832
O      -5.80697330     0.43916438    -4.01125013    -0.24160013     0.09243584     0.14646396
O      -9.96519776     8.21015494    -8.05220026     0.72329449    -0.50151121     1.15470142
