# total energy = -630.64734639 eV

CRYSTAL
PRIMVEC
        0.00279571     0.02951795    -7.98606283
       -7.83802570     0.01298533    -3.99532603
       -3.92160916     8.71933433     0.00634407
PRIMCOORD
56 1
Li     -3.99625629     2.03067374    -2.00673491    -0.11072056     0.61813164     0.54716051
Li     -3.85137123     2.38798315    -6.04292693    -0.20693020    -0.38835315     0.35736398
Li     -7.96719123     2.27459552    -9.99795097     0.56274092     0.37205753     0.21520875
Li     -7.77724332     2.08568084    -5.82999564    -0.04616982     0.60153297    -0.03888193
Li     -3.91893292     6.62897146    -1.99206133     0.45706380     0.18247744    -0.13879963
Li     -3.96916772     6.27449990    -6.04741505     0.27124428     0.07736866     0.60675445
Li     -7.92439146     6.63631709   -10.00381071     0.33541231    -0.24066534     0.10080480
Li     -8.02188492     6.44541903    -5.86144988     0.45000856     0.33915993     0.00700012
Ti     -1.96680743     2.00895646    -4.00250327     0.16239310    -0.06936064    -0.14379263
Ti     -5.86942606     6.46527984    -7.97762507     0.55423261     0.31944124     0.17189893
Ti     -7.86213432     4.37861119    -7.73075937    -0.21022383     0.70847754     0.40183795
Ti     -7.72025005     4.34359981    -3.76669650    -0.18804948     1.20086471     0.56245648
Ti     -3.72117469     4.30052364    -7.78773959    -0.04069856     0.35092789    -1.76996960
Ti     -3.89038651     4.37132271    -3.60130716    -0.04814336     0.64362157    -0.00696349
Ti     -2.24471225     0.07344594    -1.75529378    -0.65244503    -1.83527068    -0.48274697
Ni     -5.87575250     2.29641102    -7.95371247     0.90150624    -0.45077898     0.79326565
Ni     -5.79308384     2.27090384    -3.92220494    -0.25420166    -0.95218227    -0.78239942
Ni     -9.79288764     6.46896985    -8.17303718    -0.22566784    -1.75653023     0.54936746
Ni     -9.84221941     6.57645937    -4.05232421     0.76329937     0.10146091    -0.57579727
Ni     -1.95009462     2.16028708    -7.94607872     0.15165501     0.72593619    -0.19581674
Ni     -5.87014961     6.57101363    -4.01395701    -0.19809409     0.31296915    -0.50779359
Ni     -5.99523586     8.71247837    -5.98756423     0.54108053    -0.66793866    -0.02371678
Mo     -6.12310560     0.07597858   -10.27333675     0.80657083     0.02317445    -0.83132664
Mo     -5.84346716     0.14588607    -6.42737019    -0.09506075    -0.38159250    -0.77432861
O      -2.03679466     1.88177800    -1.97216544     0.72320196     0.93109270    -0.06254761
O      -1.98050233     1.82658832    -5.99306846     0.13463019     0.40919646    -0.03541006
O      -5.74558728     6.89477652    -2.17264054    -0.95993371     0.64343784     1.32771006
O      -5.86506198     6.77617533    -6.02480085    -0.60495504     0.87662429     0.65610060
O      -5.96396361     1.97207262    -9.73178863    -0.29340921    -1.04313374    -1.03536259
O      -5.72121730     2.07159522    -6.13298776    -1.08090546     0.26266722     0.89012739
O      -9.77877862     6.81146652   -10.23646663    -1.24628878     0.71385228     1.16441291
O      -9.85759410     6.92648208    -5.91066215     0.25696880     0.31107669    -0.15145912
O      -3.81482794     2.39596226    -3.99105100    -0.33949251    -0.21786301     0.23775587
O      -3.88277581     2.34076088    -8.02718770    -0.63008826     0.32298311     0.40321373
O      -7.85247203     2.44035186    -3.90123954     0.32137280    -0.88502130    -0.65692282
O      -7.82837030     2.47763372    -7.84197314    -0.40331079    -0.41593293    -0.63598158
O      -3.89193797     6.28431244    -4.00896288    -0.61060907    -0.06174391    -0.00737653
O      -3.86810988     6.36856193    -8.04144747    -0.60764401    -0.43214301     0.22720964
O      -7.90984786     6.40622650    -3.82860105     0.99965837    -0.73513892    -1.65289793
O      -7.76848647     6.35228858    -8.05582260    -0.77697587     0.26940130    -0.08388363
O      -3.85996843     4.17037806    -1.85729313    -0.46021345     0.43854745    -0.98271773
O      -3.80260072     4.30358959    -6.06346841    -0.42803892     0.15262354     1.09395698
O      -7.84055320     4.42671660    -9.99002339    -0.10178190    -0.14257137     0.27876912
O      -7.98872223     4.56806379    -5.97138567     0.64948844    -0.35109278    -0.76018656
O      -4.11090261     0.07144084    -9.89489394     1.96947810     0.00842536    -0.39118713
O      -4.05772652     0.17318348    -6.08971584     0.51990220    -0.76918948    -0.04396433
O      -7.61401813     0.28072657    -6.06046030    -0.21438632    -0.75985454    -0.03991513
O      -0.02141192     0.04244942    -6.04403382     0.25474422    -0.11138889    -0.06827274
O      -2.06621244     4.49502516    -4.07218113     2.49756450    -0.20891826     0.05595876
O      -9.71889650     4.25046135    -4.12411192     0.50438491    -0.16683302     0.59322774
O      -5.74525873     4.10773663    -3.97237424    -1.68052968     0.51138589    -0.36991898
O      -5.83749973     4.62921617    -7.99269330    -0.54287178    -0.65231607     0.16156663
O      -1.92426813     0.21713617    -4.02115734    -0.36439756    -0.22108950     0.30747596
O      -5.80300266     8.51994148    -7.89454951    -0.50724702     0.19750486    -1.25275568
O      -5.82502157     0.39130382    -4.10687508    -0.27976443    -0.16610798     1.38183594
O      -9.79549315     8.23998004    -8.24436166    -0.36693132     0.81647136     1.10803530
