# total energy = -630.39326971 eV

CRYSTAL
PRIMVEC
        0.00279571     0.02951795    -7.98606283
       -7.83802570     0.01298533    -3.99532603
       -3.92160916     8.71933433     0.00634407
PRIMCOORD
56 1
Li     -4.10349064     2.10792985    -1.96957058     0.64105423     0.63965024     0.22688718
Li     -3.92162256     2.11316000    -5.89213462    -0.23285761     0.23400632    -0.48201871
Li     -7.83296808     2.32220038    -9.98164104    -0.34104315     0.14818094     0.01415630
Li     -7.74167895     2.30363695    -5.80622548     0.04957718    -0.27649564    -0.29598572
Li     -3.87996945     6.64591218    -1.85263001    -0.31510344    -0.10472602    -0.64046112
Li     -3.87446075     6.35914610    -5.83546876    -0.28329974     0.01796155    -0.09215563
Li     -7.85000079     6.52184926   -10.10925136    -0.27633072    -0.22425850     0.68641191
Li     -7.80898217     6.44939795    -5.94089968     0.01017352     0.14114219     0.28290414
Ti     -1.92804203     2.20880992    -3.96335949    -0.82484473     0.57097872    -1.00248327
Ti     -5.91628315     6.59059480    -7.90142680    -0.18729345     1.97071295    -0.85932513
Ti     -7.83562798     4.30341191    -7.74426728    -0.17252114     1.76806571    -1.53742130
Ti     -7.82660972     4.40109872    -3.78801493     0.58847631     0.00674312     1.10725196
Ti     -3.80389978     4.37329327    -7.71719389    -0.66668383    -1.01623245     0.38739777
Ti     -3.94909163     4.31879651    -3.76366424    -0.63606286     1.01148963     0.76750790
Ti     -2.20473236     0.08564373    -2.08098848     0.73379199    -2.06168583     3.02359118
Ni     -5.84701119     2.45216043    -8.03468648    -0.50771975    -0.45097083     0.10239618
Ni     -5.91382442     2.09704181    -3.99499416    -0.16794191     0.53318288    -0.91122884
Ni     -9.81709371     6.66185433    -7.90963976     0.08869376    -1.31039230     1.25554598
Ni     -9.80700215     6.48761824    -4.01086956     0.06255438     0.41748669    -0.21217166
Ni     -1.89655773     2.16383320    -8.08357512    -1.17614910    -0.38975190     1.59506979
Ni     -5.77768164     6.67495489    -3.97363110    -1.13141232    -0.87994121     0.56645995
Ni     -1.92234220     0.02796093    -5.93073693    -0.64372760    -0.53520096    -0.62558109
Mo     -9.92535916     8.74148974   -10.19949999    -1.35304599    -0.58765243     0.44804685
Mo     -9.72628396     8.63257451    -6.45713743    -0.93680160     1.86313676     0.29506452
O      -1.91256304     1.97875299    -1.94035874     0.27766217     0.38287734    -0.60493991
O      -1.99919453     1.93592259    -5.86963573     0.47228129    -1.04369485    -0.81265795
O      -6.02518742     6.86277186    -1.99865452     1.18092244    -0.37549028    -0.39144844
O      -5.78127954     6.88645717    -5.89379890    -0.31639053    -0.00521282    -0.43299617
O      -5.94286768     1.96917857   -10.09538902    -0.12086492     0.42699527    -0.68453881
O      -5.85411134     1.93975944    -5.95003442     0.14522734    -0.69435647     0.53515812
O      -9.87055589     6.85792307    -9.65800125     0.73133451     1.22624820    -1.83342819
O      -9.74518026     6.78598645    -6.04546323    -0.15170454    -0.81381204     0.20861284
O      -3.93370937     2.38830176    -3.97356133     0.25843125    -0.70226247     0.21436882
O      -4.01747510     2.39083158    -7.96584797     1.72405809     1.25758377     0.08028316
O      -7.90306126     2.38934923    -3.86471724     0.61311200     0.19215759    -0.94709466
O      -7.77674298     2.41351213    -8.05285087    -0.85710300    -0.25397315     0.43116440
O      -3.87056664     6.36457873    -3.88630032    -0.01033146    -0.06735232    -0.02164204
O      -4.01520021     6.34437433    -8.00371556     0.92025799    -0.44259273     0.53375322
O      -7.82929680     6.34951816    -4.02335269    -0.07508781     0.35358912    -0.11548998
O      -7.82507005     6.31758191    -7.96703259    -0.47114976    -0.16954704     0.47214380
O      -3.88970448     4.26144124    -1.99911543    -0.39984458     0.13516294    -0.18379429
O      -4.05565340     4.33852089    -5.93558342     0.58087737     0.40088500    -1.47079349
O      -8.00739344     4.54422615   -10.00313950     0.52267552    -0.59045897    -0.53747481
O      -7.87308574     4.34391818    -6.01368486    -0.32070386     0.00168971     0.86247104
O      -3.99467819     0.12301730    -2.04123221    -1.77121791    -0.21723438     0.09829929
O      -7.88951884     8.57066173    -6.18433291    -0.84963010     0.89340507     0.57564076
O     -11.55957447     8.65176388    -5.98363669     1.28991079     0.27566993    -0.73362564
O      -3.90434785     8.67708774    -6.19619924     0.58012771     0.65778040     0.92074515
O      -2.01682312     4.22122762    -4.11478688     0.82384230    -1.63907157     0.61436318
O      -9.80890118     4.62021190    -4.01591402     0.06073667    -0.10926596    -0.24194323
O      -5.91938899     4.40741863    -4.13332287     0.21604889    -0.05353374     0.84647879
O      -5.91686116     4.37676079    -8.11757449     0.34535820     0.34871520     0.54353243
O      -2.13650054     0.19169625    -3.86148919     1.26440780     0.68247808    -2.85162845
O      -5.99933217     8.48293352    -8.04006653     0.50844106    -0.80689234     0.18887759
O      -9.79547284     8.47017530    -3.97364252     0.66935502    -0.37437451    -1.43104349
O      -5.83221949     0.62448194    -8.24499279    -0.40116397    -0.74082556     2.08457347
