# total energy = -630.96352320 eV

CRYSTAL
PRIMVEC
        0.00285542     0.02004370    -7.95977623
       -7.82940539     0.00763210    -3.98158109
       -3.91729101     8.74642787     0.01461334
PRIMCOORD
56 1
Li     -3.95761995     2.07260007    -1.96311817     0.18852134     0.34374054    -0.00346984
Li     -3.86660834     2.13780184    -5.96725606    -0.29500831    -0.03041606     0.08614702
Li     -7.79520974     2.25441156    -9.95272133    -0.23625144     0.12459132    -0.13433914
Li     -7.73119317     2.25504070    -5.80914797    -0.28281004     0.21208996    -0.85121048
Li     -3.99528069     6.60629639    -1.88886635     0.51882455    -0.36795476    -0.25556560
Li     -3.93734487     6.36518946    -5.86813991    -0.02480577     0.31065048    -0.64463654
Li     -7.86702912     6.41031371    -9.82395601    -0.31902047    -0.01063086    -0.55859860
Li     -7.76041121     6.43747579    -5.86835597    -0.55470349     0.38535487     0.26928204
Ti     -1.85487249     2.16192485    -4.04460774    -0.37769951    -0.04397808    -0.23576913
Ti     -5.92372875     6.59550617    -8.00281235     2.28617254     0.67473940     0.50433055
Ti     -7.84739033     4.48942279    -7.71836016    -0.42729235    -1.79491832    -0.67056150
Ti     -7.75312021     4.37129398    -3.69516308     0.38755919     0.25108813    -0.68034907
Ti     -3.79767788     4.37501211    -7.72447083     0.37953753     1.01622401     0.11133172
Ti     -3.94183557     4.30027803    -3.72411737    -0.41807001     0.04301949    -0.35207312
Ti     -6.10625077     8.70571166    -2.00117947    -1.00601724     0.21329256    -0.09310001
Ni     -5.78868152     2.43869152    -8.00986906    -0.55291057     0.83024169     0.06006397
Ni     -5.95043794     2.06745256    -3.95899102     1.11002678     0.26031580     0.13438015
Ni     -9.90624980     6.59456880    -7.84740434     0.97557823    -0.02274181    -0.29770015
Ni     -9.68399339     6.48833854    -4.02776529    -0.58295779     1.12524245     0.48117553
Ni     -1.94983761     2.23908353    -8.11061808     0.46327251    -0.63197525     1.41641573
Ni     -5.83844662     6.63272012    -4.03028573     0.00714070    -0.68060665     1.11575918
Ni     -5.96554548     8.72155655    -5.83807823     0.21346126     0.05360150    -0.91557327
Mo     -9.94190420     8.75196042   -10.09520648    -1.09105509    -1.34512808    -0.86023875
Mo     -5.92494558     0.03113914    -6.47489241     3.21202580    -0.39151911     1.34576761
O      -1.95123558     1.88175707    -1.98414608     0.59082668     0.30187785    -0.26137015
O      -1.92946179     1.83101176    -6.01782646    -0.26997875     0.07790467     0.56252900
O      -5.93694542     6.71878279    -1.97138138     0.28552019     0.16529421    -0.65635206
O      -5.94075407     6.90812426    -5.86108905     0.12982905    -0.12108423    -0.32771712
O      -5.85193325     1.94788859   -10.04977460    -0.79017699     0.92815193    -0.96560423
O      -5.85606638     1.95324671    -5.76544173    -0.11031746    -0.78998186    -1.53892689
O      -9.76159836     6.87368808    -9.71711184     0.07759004     0.47359243     0.04940907
O      -9.78782464     6.81817922    -5.98555762    -0.37277672     0.48523061    -0.45969011
O      -3.90470550     2.35884457    -3.90989701    -0.16015181    -0.27132376    -0.49344934
O      -3.82925287     2.47977699    -7.98530115    -0.42668959     0.07985196     0.15989373
O      -7.87275293     2.37652656    -4.00426986    -0.00309973     0.42201988     0.59654277
O      -7.78919392     2.46054998    -7.99094263     0.53743642     0.11108635     0.28568462
O      -3.86729122     6.32948782    -4.07416450    -0.73024991    -0.01742974     1.40729225
O      -3.97854698     6.49956274    -7.86609097     0.28378656    -1.59325364    -0.49966014
O      -7.79690972     6.38943142    -3.83741242     0.27568443    -0.42971427    -0.77182935
O      -7.86235374     6.39604032    -7.90190108    -0.43321914    -0.03057800     0.02286165
O      -3.93578826     4.43114855    -1.99313212     0.25675962     0.42423227     0.94105247
O      -3.87209136     4.44554676    -5.97202320     0.11702794    -0.33338227    -0.31736853
O      -7.84257701     4.37759174    -9.92202532     0.09428885    -0.17272372     1.13553091
O      -7.80035311     4.42020200    -5.99956618    -0.32182552    -0.13903904     0.92952266
O      -4.00382701     0.16542574    -9.82483747     0.96452060    -1.03007090    -0.79378488
O      -7.96902044     8.69875530    -6.05470028    -0.45105922     0.40284408    -0.30018476
O     -11.56541376     8.70495117    -6.19055713    -1.00024753     0.04943484     0.72230317
O      -3.89563682     8.68543928    -5.87684585     0.67728396     0.44078945    -0.63875559
O      -2.00113155     4.05213957    -4.05194388     0.87734323     0.45192154     0.28385203
O      -9.65510376     4.64443575    -4.00364280    -1.45659769    -0.07870794    -0.31956055
O      -5.85647895     4.42774047    -3.97988215    -0.17706579     0.11852167    -0.44540019
O      -5.83524026     4.46144640    -7.87508355    -0.27789146    -0.25507789    -0.56450042
O      -1.79889486     0.17759507    -3.89623868    -0.76667568    -0.03964702    -0.44130474
O      -5.82053951     8.42725090    -8.12604895    -0.09740747     0.38914667     1.38314245
O      -9.69445485     8.50074734    -3.90567141    -0.45363501    -0.07178105    -0.67555740
O      -5.80057064     0.64516691    -8.24786310    -0.21774757    -0.29054579     3.02815257
