# total energy = -630.67641052 eV

CRYSTAL
PRIMVEC
        0.00285542     0.02004370    -7.95977623
       -7.82940539     0.00763210    -3.98158109
       -3.91729101     8.74642787     0.01461334
PRIMCOORD
56 1
Li     -3.90988025     2.32331156    -1.95405369    -0.17504051     0.01705883    -0.14700679
Li     -3.85970089     2.19396109    -6.06079240    -0.35463303    -0.13304686     0.43776205
Li     -7.78040812     2.39766093    -9.93341956    -0.34271418    -0.15502418     0.01905258
Li     -7.76246281     2.14797581    -5.81844387    -0.23379746     0.17965256    -0.24029211
Li     -3.79103126     6.62459211    -1.97509419    -0.69384757    -0.35574627    -0.14584528
Li     -3.92809572     6.60869135    -5.89697826     0.03208680    -0.16191848     0.27742460
Li     -7.97821565     6.54345721    -9.89473028     0.26782755    -0.12474145    -0.09903734
Li     -7.87559067     6.80180506    -5.76244610     0.60693085    -0.23818940    -0.35543262
Ti     -1.89552001     2.21472445    -4.06202503    -0.51686746     0.54089404    -0.21294535
Ti     -5.87326728     6.59808052    -7.90517996    -0.09011508     0.73154540    -1.01099631
Ti     -7.75835192     4.39329883    -7.54353877    -1.23715559    -0.22225978    -1.62262141
Ti     -7.68783363     4.44159540    -3.69548534    -1.80597909    -0.37835676     1.04548228
Ti     -3.84417136     4.37419167    -7.60699715     1.65968942     1.55063873    -2.55646837
Ti     -4.04567280     4.33846567    -3.65469462     1.48401458    -0.35922514     0.12306054
Ti     -2.23644417     0.06597288    -2.08210221    -0.19235518    -1.37232347    -0.01929347
Ni     -5.80694347     2.35969222    -8.00894517    -0.77130427     1.07276256    -0.04272668
Ni     -5.92887022     1.89780784    -3.93973148     0.25670309     0.64570423    -0.48193875
Ni     -9.73852568     6.51862234    -7.93808606    -1.05076028    -0.00248092     0.00195459
Ni     -9.84178107     6.56765256    -4.10160703     0.46439305    -1.32568526     0.72111754
Ni     -1.94154826     2.17951495    -8.01227970     0.62280154     0.14233489     0.55807979
Ni     -5.83454458     6.64401912    -3.99715365    -0.26689696     0.52653760     0.45118254
Ni     -5.94478620     8.74189411    -5.93499954     0.69909974     1.81311031    -0.72682466
Mo     -6.04649447     0.09216602   -10.16196122     0.53384765     0.67374799    -2.42880756
Mo     -9.73606984     8.70886033    -6.38711335     0.13985394    -0.13631847    -0.14998693
O      -1.90756473     1.94185460    -2.07112930    -0.05291234    -0.18264237     1.43458543
O      -1.89514781     1.89587755    -6.02559303    -0.80913452    -0.75272828    -0.22182856
O      -6.01637011     6.82853099    -2.10981978     0.75306763     0.20488481     0.57638110
O      -5.85918545     6.94800115    -5.98905828    -0.26338323    -0.74055808     0.61960988
O      -5.93306610     2.11501676   -10.06937389     0.76779328    -0.98886668     0.29014076
O      -5.88612632     1.86665930    -5.84691383     0.73844116    -0.28183935     0.14577962
O      -9.86860654     6.93667655    -9.84810550     0.40649380     0.07270962     0.69540292
O      -9.69096814     6.69315014    -6.09606232    -0.44282187     0.99650999     0.68944949
O      -3.86015216     2.36269075    -3.92377283    -0.91830462    -0.50970020    -0.08850815
O      -3.89293436     2.57407970    -8.07263280     0.35726749    -2.44037313     0.28834865
O      -7.81023029     2.41402569    -3.90211784    -0.38327628    -0.10938653    -0.58777702
O      -7.80839737     2.42045838    -7.85024015     1.00751284     0.16596948    -0.47058709
O      -3.87094922     6.27533658    -3.96998097     0.87099503     0.67562995    -0.07447519
O      -3.99938422     6.32817706    -7.85045553     0.48099660     0.50921936    -0.52226227
O      -7.89524131     6.43710720    -3.93115293     0.31185957    -0.42353123    -0.09130343
O      -7.84116999     6.39028423    -7.85119504     0.25492351    -0.72646339    -0.46751088
O      -4.02507242     4.39141554    -1.89558451     0.18227526     0.06377189    -0.88970435
O      -3.94250601     4.12203618    -5.94184388    -0.27078345     0.33456004     2.53360763
O      -7.83582261     4.23715516    -9.85667819     0.02874563     1.23733592    -1.29698652
O      -7.96086957     4.23408503    -5.84318101     0.32740883     0.21078992     0.73804445
O      -4.06556319     0.13969836    -9.97519375     0.50898663    -0.03315062    -0.39625313
O      -7.86956800     8.74801482    -6.18771370     0.34561561    -0.07373590     0.54846243
O     -11.47504504     8.66884182    -6.21329787    -1.22254100    -0.36318928     0.35981179
O      -7.77331393     0.18647988    -9.99005322    -1.10152282    -0.62558218     0.01462964
O      -2.03356950     4.07809195    -4.00772956     0.95009194     0.60473512     0.22474650
O      -9.75278960     4.68750850    -3.93461083    -0.32529234     0.11641713     0.16697378
O      -5.84302586     4.73204413    -4.01259096    -1.06030683     0.21510273    -0.35559395
O      -5.88646411     4.45597131    -7.90130598     0.00061136    -0.08741837     0.38565497
O      -1.77195879     0.14494294    -3.94633113    -0.82252297    -0.28184150    -0.14763784
O      -5.73339439     8.43319154    -8.17717511    -0.31140149     0.23935167     0.58452233
O      -9.93936946     8.38389025    -4.14289564     0.58100212     0.84912927     1.54003085
O      -5.81738771     0.57058472    -8.18355869     0.16011099    -0.18231015     0.51009769
