# total energy = -631.12616794 eV

CRYSTAL
PRIMVEC
        0.00279571     0.02951795    -7.98606283
       -7.83802570     0.01298533    -3.99532603
       -3.92160916     8.71933433     0.00634407
PRIMCOORD
56 1
Li     -3.97882852     2.13689395    -1.93549340     0.09616706    -0.09975351     0.19838134
Li     -3.80468830     2.18784412    -6.04952077    -0.58332591    -0.00240438     0.28303794
Li     -7.83668622     1.90480352    -9.86811914     0.64520707     0.38058719    -0.34640465
Li     -7.79366429     2.44719938    -5.83549461    -0.26020387    -0.11266248    -0.41794975
Li     -3.91039754     6.44620492    -1.88794824     0.11171027     0.16864326    -0.29054294
Li     -3.86825842     6.45149244    -5.96495300    -0.44394916    -0.22002299     0.18931089
Li     -7.83493831     6.60050746    -9.74564701    -0.17527063    -0.10986313    -0.93001969
Li     -8.04036036     6.67795303    -5.79433220     0.65152931    -0.32578397    -0.48494466
Ti     -1.98175092     2.41892118    -4.11298524     0.29284785    -0.38468302     0.09662300
Ti     -5.91819638     6.74940006    -7.89126267     1.03767829    -0.58792010     0.44537000
Ti     -7.66156510     4.47057857    -7.69468186    -0.97306441    -0.48449190     0.51259249
Ti     -7.92946431     4.38094881    -3.58850637     0.48600485     0.29992866    -1.39769360
Ti     -3.85210521     4.28245343    -7.80968193    -0.62048898     1.01196080     0.83096369
Ti     -4.07527315     4.41110319    -3.64738827    -0.09998553    -0.33526023    -0.02820384
Ti     -1.90424238     0.03186491    -2.26701276     0.34271140    -1.04974000    -0.46782998
Ni     -5.88117453     2.19319557    -7.94886745    -0.38418169    -0.22498329    -0.66263170
Ni     -5.88786407     2.26030209    -3.99769969     0.00295277     1.51557853     0.48651764
Ni     -9.79709843     6.32306528    -8.06661477    -1.11005655    -0.59296925     0.68970653
Ni     -9.81330092     6.74582905    -3.92515429    -0.21268807    -0.72285052    -0.39753937
Ni     -1.91536294     2.07000054    -8.02570531     0.11165353     0.47448509     1.34958582
Ni     -5.98189195     6.61898508    -3.98075865     0.15433486    -0.10484589    -0.14533529
Ni     -2.01623366     0.04982703    -5.98261046     0.22349042    -1.83281350     0.15329329
Mo     -9.78602614     8.60248386   -10.32327456     0.69223135     1.01884934    -0.70508742
Mo     -5.87418384     0.10157985    -6.41544920     0.99170693    -0.56856425     2.28978610
O      -1.98636191     1.86899453    -1.86664108    -0.07674005     0.54979737    -1.18031063
O      -1.87189414     1.85024434    -6.02753256    -0.64211357     0.76290728    -0.11529073
O      -5.98284197     6.77935959    -2.10154791     0.89182811     0.66984700     0.51121530
O      -5.97379927     6.77195243    -5.94465751     0.35719699     1.45067152     0.41724516
O      -5.87064928     1.79202701    -9.85825962     0.25380862     1.16262451     0.43730089
O      -5.80951410     1.97586485    -6.10736949    -0.97726256     0.87281046     0.49403967
O      -9.78150404     6.69307075   -10.04149762    -0.14990011    -0.17420280    -0.44586906
O      -9.85956272     6.99605495    -5.74143710    -0.11540554    -0.47214806    -0.11629341
O      -3.91185667     2.39968125    -4.00201374     0.45754896     0.71068522     0.03664660
O      -4.06773378     2.34043174    -7.91004300     0.79083211     0.15069797    -0.74538046
O      -7.81271095     2.42270942    -3.96245325     0.17737251    -0.34478147     0.27736686
O      -7.82646694     2.51192617    -7.97420940    -0.20109201    -0.47644163     0.19139629
O      -3.91390329     6.26292764    -3.95072796    -0.33598323     0.16361142    -0.21193706
O      -3.90334405     6.41779912    -7.98091794    -0.11657274    -0.14361068     0.48529564
O      -7.87207597     6.37835167    -3.94598230    -0.36877834    -0.58547413     0.24383605
O      -7.91846332     6.42835488    -7.86311507     0.42150608    -0.38583204    -0.41181643
O      -3.75500422     4.38954206    -1.89178939    -0.21081918    -0.09035827    -0.73488274
O      -3.92909311     4.43152076    -6.04589877    -0.01504106    -0.24574073    -0.00493983
O      -7.86946706     4.45175100    -9.86190984    -0.35181470     0.30366284     0.98678755
O      -7.97829921     4.42130719    -5.94485430     0.42679587    -0.06194103    -0.55769278
O      -7.92561851     8.61396177   -10.03175359    -0.00425492     0.51872343     0.19192484
O      -4.02642564     0.02332270    -6.21578932    -1.14793293     0.33953473    -0.00126022
O      -7.79842438     0.04325318    -6.26003116    -0.68387104     0.48408667     0.62818311
O     -11.52625608     8.73600683    -9.99055421    -1.40881889    -0.81015798     0.05070134
O      -2.01255988     4.29937109    -4.13670564     0.30681879     0.52231033     0.45257662
O      -1.96593372     4.01710335    -7.92133409     0.41537208    -0.37508198    -0.06157707
O      -5.90730260     4.11707517    -3.75512272    -0.55751714    -0.01819301    -0.65506505
O      -5.88318851     4.73178308    -8.04409180     0.88384818    -0.08324160     0.15370418
O      -2.08601011     0.42708474    -4.09054254     0.34078323    -0.48731466     0.49478689
O      -5.80617302     8.56242085    -7.94562982    -0.03999392     1.17153934    -0.33513177
O      -5.86502957     0.53518308    -4.13296042    -0.03266817    -2.59391817     0.23138513
O      -9.95329072     8.14931994    -8.04047168     0.88251046    -0.32049349    -1.94043176
