# total energy = -630.60742443 eV

CRYSTAL
PRIMVEC
        0.00279571     0.02951795    -7.98606283
       -7.83802570     0.01298533    -3.99532603
       -3.92160916     8.71933433     0.00634407
PRIMCOORD
56 1
Li     -3.96940073     2.33176564    -1.87973549     0.13572188    -0.62775018    -0.20695703
Li     -4.17472668     2.40050808    -5.93641200     0.87465501     0.50389153    -0.58398641
Li     -7.89961586     2.37633910    -9.81306674     0.64492668     0.01192563    -1.20405749
Li     -7.88622688     2.30815999    -5.90534137     0.36804967    -0.10168040    -0.01235942
Li     -3.88694186     6.42991415    -1.88078539     0.00905534     0.32044700    -0.47099986
Li     -4.01980533     6.56743912    -6.14722998     0.20660519    -0.00872299     1.21682153
Li     -7.99527731     6.40429274    -9.98689663     0.93746085    -0.01852232     0.16798313
Li     -7.94119600     6.41165759    -5.86520591     0.82665440    -0.18135930    -0.16547784
Ti     -2.12107741     2.25724341    -4.15383278     1.25254137    -1.81284870     0.27681679
Ti     -5.97250744     6.65361319    -8.13803772     0.93986204    -0.81889933     1.22887709
Ti     -7.87452901     4.35524914    -7.67447971     0.47574327    -0.82071058    -0.22941376
Ti     -7.86474492     4.38412520    -3.77200688     0.10279907    -1.16446662     0.71324612
Ti     -3.95378969     4.44622196    -7.77579868    -0.41409929     0.03307174     1.49817600
Ti     -3.99397359     4.44033365    -3.74954942    -0.65493876     0.72401271    -0.95485032
Ti     -1.81293704     0.03803932    -2.02984082    -0.18626455     0.74512370    -1.14299231
Ni     -5.86645567     2.14869318    -8.04594454    -0.17768037     0.35751291    -0.02376117
Ni     -5.88840133     2.29064185    -4.04336479    -0.05352452     0.25400933     0.82948322
Ni     -9.84702995     6.76116055    -7.90806689     0.02065256     0.19053895    -0.26330926
Ni     -9.75526717     6.34608246    -3.94341236    -0.02603325     0.63950653     0.37782834
Ni     -2.00177138     2.27757353    -7.98961864     0.50483022    -0.16803620    -0.08119411
Ni     -5.88587749     6.55644873    -4.06661870     0.13449987     0.60468708    -0.02181730
Ni     -2.00133228     0.03165743    -6.03871640     0.45952957    -0.29224639     0.43475837
Mo     -9.81457976     8.68239053   -10.31688413     1.20645601    -0.04559864     0.83394674
Mo     -9.64982934     8.66854845    -6.15142084    -2.85120009     0.13504335    -1.34290684
O      -1.93784271     1.98290696    -1.95099505    -0.19966456    -0.36784022     0.35135753
O      -1.95679161     1.90768203    -6.11540686    -0.28201056    -0.15913956     0.97112428
O      -5.85360805     6.74178434    -1.99164338    -0.45034646    -0.12790554    -1.02372531
O      -6.01843110     6.92873472    -5.97877291     0.72976228    -0.20771152     0.78885973
O      -5.86259346     1.93059672   -10.00191309    -0.37054104     0.41007656     0.66496713
O      -5.92148447     1.98471200    -6.03489549    -0.40722600    -0.69442062    -0.35139420
O      -9.73534035     6.80969241    -9.86968948    -0.90926431    -0.38059136    -0.14299832
O      -9.79830458     6.73871826    -5.89164969    -0.13035000     0.12802753    -0.18195611
O      -3.94910736     2.39339231    -4.01372526    -0.73866789     0.09549340    -0.53678813
O      -3.91425100     2.50445819    -7.94204307    -0.63357458    -0.88734353     0.14101650
O      -7.74188396     2.42150028    -3.84312930    -1.28816448    -0.43152933    -0.94066369
O      -7.84019936     2.38816822    -7.98611843    -0.01872656     0.76836489     0.26254471
O      -3.93340292     6.35840219    -4.03866429    -0.07642607    -0.00277588     0.65175969
O      -3.85192133     6.39927185    -7.97337619    -0.40162333    -0.50145140    -0.57099108
O      -7.78543497     6.29300863    -3.96281672    -0.60720704     0.77151383    -0.25034162
O      -7.77590381     6.27006290    -7.90874825    -2.52853180     1.28725557    -0.25265683
O      -3.97745190     4.16676751    -2.03332304     0.37405668     1.30108775     1.19752696
O      -3.95999908     4.52035011    -5.98476155    -0.34235008    -0.81466206    -0.81562969
O      -7.86886201     4.44253901   -10.01003709    -0.05580563    -0.05236517     1.13446738
O      -7.71781882     4.30593809    -5.91825560    -0.75437139     0.27509164    -0.56827854
O      -7.96820706     8.72862490    -9.94107530    -0.62252025    -0.32201260    -0.46810859
O      -7.94449932     8.66487579    -6.16880766     1.33705265     0.26541665     0.33667808
O      -3.94141601     8.55710982    -2.10054236     1.15104599     0.52696544     0.49919370
O     -11.61340125     8.57837404   -10.14014372    -0.21888310     0.53072868     0.35494213
O      -2.03584408     4.11587039    -4.00953874     0.90232219     0.65104427     0.07873948
O      -2.00635135     4.29731693    -7.87629379     0.33419729     0.19491646    -0.96250881
O      -5.90195782     4.16666027    -3.92072913     0.54605858     0.09130930    -0.65560318
O      -5.95786189     4.61356048    -8.00317258     1.03429844    -0.30837782    -0.20177028
O      -2.07038519     0.30743830    -3.96800498     0.02023719    -0.04468409    -0.37899739
O      -5.90644865     8.52893730    -8.04738186    -0.04153363     0.21617125     0.20047242
O      -5.79039896     0.43915690    -4.10741625    -0.25888249    -0.55167109    -1.34623545
O      -5.95270226     0.28469852    -8.04925472     0.13096505    -0.06623494     1.04862978
