# total energy = -630.98228077 eV

CRYSTAL
PRIMVEC
        0.00285542     0.02004370    -7.95977623
       -7.82940539     0.00763210    -3.98158109
       -3.91729101     8.74642787     0.01461334
PRIMCOORD
56 1
Li     -3.99998956     2.36036374    -1.95674796     0.12240148     0.04339927     0.15839596
Li     -3.87851141     1.95931626    -6.02194902    -0.11702944     0.17706635     0.11823648
Li     -8.07425713     2.51941257    -9.79929050     0.45873544     0.07547439    -0.74139083
Li     -7.84451366     2.29615506    -5.86351644     0.39848932    -0.14623247     0.01436991
Li     -3.86708278     6.71576476    -1.99980819    -0.09019458    -0.78035622    -0.17033218
Li     -3.91554963     6.45690548    -5.91438113     0.14412570    -0.15854051     0.44859899
Li     -7.92788836     6.34634607    -9.82581652    -0.08289272     0.02012001    -0.68809607
Li     -7.76914679     6.75338979    -5.81871752     0.31312824    -0.03525766    -0.01528817
Ti     -2.02492022     2.10061690    -3.84557080     0.70106238     0.33513511    -0.70849344
Ti     -5.78338491     6.69752419    -7.88685994    -0.22591178    -0.18063837    -0.23455843
Ti     -7.75827984     4.37994022    -7.64394153     0.34083459    -0.49178859     0.31682888
Ti     -7.75588971     4.47640683    -3.83479622     0.61436723    -0.81236806     1.37196671
Ti     -3.74406413     4.30563896    -7.71574306    -0.99450636    -0.46685301    -0.97674129
Ti     -3.87025807     4.33746343    -3.76321472    -0.21169780     1.12318010    -0.63957865
Ti     -6.26744435     8.70329583    -1.99556950     0.62838487    -0.00685357     0.53139701
Ni     -5.87115885     2.33885115    -8.03166595     0.39188863     0.84585829     0.40050497
Ni     -5.95469711     2.15776884    -3.98312650     0.63044251    -0.27940954    -0.12356306
Ni     -9.66982613     6.57794907    -7.98491324    -1.87154777     0.39067406     0.88944670
Ni     -9.83452283     6.49950694    -3.96603303     1.10694083     0.80034299    -0.21488881
Ni     -1.95701461     2.14781641    -7.95500044    -0.14837473    -0.50185805     0.78568742
Ni     -5.84404732     6.67088178    -3.92694709     0.06704635    -0.60576688     0.13007610
Ni     -5.87056495     8.73722063    -5.96494950    -0.24585684     0.34102214     0.38534711
Mo     -6.07361085     0.14022680   -10.25494487    -0.65600863    -0.47745752     0.25305894
Mo     -9.76736847     8.69921626    -6.38148540     0.53619724     0.58944222     0.48949552
O      -1.89846021     1.96439216    -1.84816966    -0.73672661    -1.02435206    -1.53123267
O      -2.00721465     1.83405954    -5.96505171     0.48891367     0.07173079    -0.31878011
O      -5.97979145     6.82875128    -2.00599656     0.60381319    -0.20679144     0.41822931
O      -5.83460609     6.85050729    -5.83924997     0.02975991     0.05992775    -1.41664960
O      -5.88465925     2.07405461   -10.02900163    -0.83827902    -0.50914461    -0.55489560
O      -5.75822116     1.89658541    -5.90065987    -1.11179609    -0.34965778     0.32294899
O      -9.86416568     6.87206436    -9.86905606     0.50342553     0.71471678     0.27700218
O      -9.57623644     6.84193353    -5.99020674    -0.97842217    -0.42768460    -0.62303496
O      -3.91952048     2.23073447    -3.93098877    -0.29182724     1.07104573     0.13698407
O      -3.92798471     2.35602776    -8.05377963     0.42531663     1.26996331     0.83159690
O      -7.92901815     2.36483884    -3.96949801     0.96194514     0.86859599     0.40133673
O      -7.75297176     2.33464866    -7.87392155    -0.46978443     1.23011632    -0.19372087
O      -3.79802631     6.37270864    -3.95004394     0.56790678    -0.34675846     0.23114151
O      -3.89438385     6.36890151    -8.03390969    -1.08233439     0.10161381     0.51781041
O      -7.88643046     6.40113663    -3.92104952     0.26214790     0.25126185    -0.04800423
O      -7.81437985     6.31106429    -7.96134721     0.78251593    -0.12548239     0.58252563
O      -3.89008740     4.36577598    -2.03584743     0.19050318    -0.14701278     0.58234218
O      -3.91202619     4.45844683    -5.99690691    -0.03482275    -0.14456012     0.94093361
O      -8.06222026     4.42124860   -10.02181897     0.48337658    -0.30075866     0.12519010
O      -7.83185581     4.32714907    -5.85007406    -0.11811568     0.00421915    -1.78773994
O      -8.04185688     8.75021538    -9.84931458     0.10386123     0.35699146    -0.47226824
O      -3.85527726     0.03287250    -6.13561813    -1.70323088    -0.65866462     0.01692772
O     -11.51234497     8.57667730    -5.90963628     1.11155934     0.90579782    -0.91253923
O      -3.92828595     8.70600066    -6.09463769     0.26573591     0.62538545     0.12544165
O      -1.89751702     3.98693419    -4.02882242    -0.32752591     0.23038140     0.35842169
O      -9.79316166     4.61080660    -4.08735059     0.60382274     0.30310073    -0.04071351
O      -5.78927426     4.57726712    -3.87381454    -1.23085990     0.07023175    -0.70482816
O      -5.83733898     4.43583070    -8.01968153    -0.70148725    -0.48055758     0.28414942
O      -1.96211384     0.17058125    -3.86872466    -0.01990000    -0.32902644     0.04293753
O      -5.90289732     8.53378812    -8.02834143     0.30995906    -0.80586857    -0.09429105
O      -9.76350655     8.52767324    -4.01889498     0.24467150    -0.57530262    -0.35197217
O      -5.91296943     0.57350835    -8.16893102    -0.24582465    -1.28275498     0.98017746
