# total energy = -630.74905545 eV

CRYSTAL
PRIMVEC
        0.00279571     0.02951795    -7.98606283
       -7.83802570     0.01298533    -3.99532603
       -3.92160916     8.71933433     0.00634407
PRIMCOORD
56 1
Li     -3.93700307     2.32384155    -1.89241725     0.27227615     0.10361332    -0.34480201
Li     -3.99817093     2.27265390    -6.00421903     0.22750617     0.00380396     0.07201090
Li     -7.80724646     2.26141554   -10.06419490    -0.34841764    -0.12124579     0.78634735
Li     -7.76474213     2.07503196    -6.12664892     0.01162163     0.31405408     1.18353157
Li     -3.81018675     6.42802642    -1.86991454    -0.28016134     0.08190571    -0.21112749
Li     -3.89052243     6.71395882    -5.89824571    -0.64710496     0.12808252     0.18150396
Li     -7.92015610     6.49964166    -9.84832969    -0.35206193    -0.08646154    -0.35123271
Li     -7.64364383     6.31895673    -5.79736320    -0.93936071     0.00169880    -0.37683296
Ti     -2.06000070     2.21367948    -3.97635824     0.19087525     0.32143197    -0.22409675
Ti     -5.95597893     6.70037421    -7.87740152     1.26604842     0.46090477     0.13547159
Ti     -7.83236661     4.42612252    -7.80900578    -0.45702204    -0.54344467    -0.34500798
Ti     -7.92618172     4.33611669    -3.77062700     0.19341701    -0.19136795     1.88369384
Ti     -3.83236683     4.40823987    -7.64326537    -0.18775434     0.84940264    -0.43236136
Ti     -4.04465284     4.43680102    -3.81953779    -0.24197838    -0.11088069     1.04142373
Ti     -5.66310152     8.57496552    -2.13429540    -0.33945876     1.57817586    -0.16942236
Ni     -5.84025609     2.44504585    -8.11156667    -0.45906675    -0.35562868     0.73177097
Ni     -5.92027514     2.15203181    -3.90689694     0.06648257     0.37615248    -1.67465146
Ni     -9.92014156     6.58213628    -7.99582464     0.91951270     0.15594503     0.57467571
Ni     -9.80190824     6.59094738    -4.02214873    -0.10469537    -1.95631644     0.28637930
Ni     -1.99802632     1.99307029    -7.98604834     0.51407565     0.28868275     0.18874603
Ni     -5.97485226     6.52514615    -3.82011170     0.29189464    -0.21079639    -0.96979989
Ni     -1.92329109     0.04953255    -5.99100378    -0.27455451     0.67832332     0.13647219
Mo     -5.85402013     0.08485698   -10.36851567    -1.07544814     0.30367824     2.05363461
Mo     -9.64223466     8.64028707    -6.36718034     0.60335826     1.04827034    -0.09517237
O      -2.01031276     1.85856387    -1.93650346     0.32958216    -0.62500762    -0.52624584
O      -2.02770601     1.93246587    -5.99550824     0.39857405    -0.75743072    -0.32133510
O      -6.04414598     6.76725214    -1.86061393     0.66997280    -0.64798203    -0.91718939
O      -5.92897901     6.96193239    -5.94098067     0.75927107    -0.84345062     0.25324549
O      -5.81103228     2.01644136   -10.10629539    -0.65495770     0.32175960     0.97357610
O      -5.78566884     1.75603925    -5.76779867    -1.67085735    -0.00564592    -0.05124868
O      -9.88574046     6.90205880    -9.84810864     0.03980042    -0.26697773     0.25935673
O      -9.71563630     6.77154232    -6.10942479    -0.45420617    -0.56399677     0.64480463
O      -4.01991320     2.44071436    -4.01297128     0.60720128    -0.80594699     0.85008316
O      -3.88875407     2.53114530    -8.03638306    -0.29979497    -0.64686367     0.07614455
O      -7.85731030     2.35364658    -3.95051020    -0.23948421     0.43721819    -0.56838809
O      -7.81515390     2.45321036    -7.87788525    -0.07624049    -0.12428862    -1.52835324
O      -3.96446726     6.33696316    -3.91783384    -0.15192327     0.85640577    -1.11408867
O      -3.96198129     6.36729270    -7.81315573    -0.09635350     0.20720462    -0.76262101
O      -7.89823061     6.36280357    -3.94761954     0.53384692    -0.40833033     0.24272506
O      -7.84061509     6.47831274    -7.90992070    -0.95226058    -0.93158807    -0.07137050
O      -3.92980301     4.61369972    -2.06804395    -0.12998582    -1.57873113     0.47685817
O      -3.98479432     4.24296532    -5.91755238     0.05332639     0.42950293     0.20232560
O      -7.89441262     4.36245027    -9.90065911    -0.25969090    -0.02207757    -1.61269723
O      -7.95237283     4.30805633    -6.08092020     0.05212972     0.52727064     1.54843703
O      -8.04758669     8.70077687    -9.91623044    -0.11407921     0.32250528    -0.69327279
O      -7.88317866     8.70340125    -6.19405663     0.36289398    -0.14038196     0.04819051
O      -3.88353594     8.46382715    -2.34804052     0.68643598     0.70022324     1.21467617
O      -7.80922771     0.14525753   -10.12036393     1.27379818    -0.14210876     0.41565841
O      -2.04613847     4.10864691    -4.01631337     0.31237402    -0.41111005    -0.17209301
O      -9.81735980     4.71450760    -3.95244462     0.00260867    -0.06939367    -0.29002477
O      -6.02201440     4.42019239    -3.95308255     0.42515179     0.59740464    -0.39901300
O      -5.86937921     4.50016636    -7.92154560     0.01101307    -0.33800954    -0.35501401
O      -2.08940092     0.16971175    -4.00371996    -0.12292563     0.46805488     0.20685071
O      -5.74035602     8.56698098    -8.07168879    -0.47116345    -0.43275661    -0.00474516
O      -9.82828369     8.37160204    -4.13222685     0.13856601     0.49402307    -1.71164079
O      -5.90892588     0.52353032    -8.06960318     0.04099735     0.86142904    -0.48765444
