# total energy = -630.57132156 eV

CRYSTAL
PRIMVEC
        0.00279571     0.02951795    -7.98606283
       -7.83802570     0.01298533    -3.99532603
       -3.92160916     8.71933433     0.00634407
PRIMCOORD
56 1
Li     -3.82693876     2.49524805    -2.02528911    -0.20921417    -0.17753826     0.05677465
Li     -3.98084782     2.08464688    -5.97299650    -0.14963362     0.15887893    -0.46082613
Li     -7.69431421     2.31216350    -9.96092857    -0.04749824    -0.27081316    -0.71273517
Li     -7.70299595     2.02140666    -5.85696953    -0.86663370     0.32686400    -0.25170763
Li     -3.92658656     6.44169812    -1.87450512     0.03981492    -0.00624827    -0.23588853
Li     -4.08904465     6.46502597    -5.80733340     0.24246589    -0.12799573    -0.42244170
Li     -7.86996697     6.49228195    -9.77861878     0.08339660    -0.27811754    -0.44628053
Li     -7.83640891     6.63644141    -5.91529873    -0.47694742    -0.26411413     0.59386517
Ti     -1.94193410     2.34230326    -4.15432922    -0.26661399     0.48960632     0.03916144
Ti     -5.92880021     6.87928771    -7.89509284     0.40666830    -2.29117254    -0.39204343
Ti     -7.79492328     4.35097477    -7.60676545    -0.62716134     1.33637777    -1.44540370
Ti     -7.78103716     4.37178981    -3.60895263    -0.52350703     0.11363716    -2.05924282
Ti     -3.90209846     4.37767890    -7.79227942    -0.94442631    -0.07609254     0.88112803
Ti     -4.04127575     4.48017603    -3.78525156    -0.04040518    -0.35596944     0.03235228
Ti     -6.03209741     8.66637247    -2.29913464    -0.18444822     0.32448279     0.86078020
Ni     -5.81138191     2.33905559    -8.08159839    -1.39977353    -0.21551225    -0.92394697
Ni     -5.76712884     2.13099067    -4.01609189    -1.49003147     1.83036726    -0.52501595
Ni     -9.82610113     6.53125330    -7.88977704    -0.12919061    -0.31432562     0.04985333
Ni     -9.80911555     6.41221958    -3.78205816    -0.03954086    -0.23016570    -1.10638294
Ni     -1.81337843     2.27586693    -8.11101281    -1.38738772     0.00772431     0.28500529
Ni     -5.94924453     6.70297858    -3.92089351     0.24196243    -0.74507849    -0.32856396
Ni     -2.05784897     0.06014618    -6.05881399     0.38885851    -0.14899382     0.80734624
Mo     -9.83429195     8.60751330   -10.20281564    -1.59507135     1.09590043    -0.44410706
Mo     -9.85430506     8.59854905    -6.35070155     1.52723332    -0.14872805    -0.29489365
O      -1.92441938     1.91331425    -2.19922426     0.37050916    -0.60837281     0.76765096
O      -1.95120006     1.88897243    -6.15834469    -0.33986470    -0.00090029     0.84909884
O      -5.87789652     6.74882931    -1.95533180     0.12363564     0.62270049     0.04447962
O      -6.00824802     6.94725858    -5.85646643     0.79897400    -0.42213295    -0.65107447
O      -5.74757769     1.99366203   -10.06654692    -0.03196929    -0.36714996     0.09018560
O      -5.97081095     1.91952239    -6.19619324     1.54313952     0.50638452     1.58040199
O      -9.95445771     6.72131041    -9.87160365     1.04202901     0.25548751     0.45691763
O      -9.80397404     6.71600654    -5.98162741     0.10949950     0.03062010     0.57997167
O      -3.88954436     2.44747160    -3.94160873     0.30214209    -0.08533581    -1.10788955
O      -3.91843311     2.46037489    -8.17065873     0.36286336    -0.09308867     1.04535652
O      -7.77727342     2.44907014    -4.03004216     0.24460651    -0.85279524     0.53636422
O      -7.87552059     2.49962867    -8.15534568     0.26372658    -1.29243307     1.08652984
O      -3.90243691     6.41710823    -3.92242936    -0.24635148     0.16790929    -0.12562825
O      -3.99878688     6.36133954    -7.96676291    -0.02762940     0.17948149     0.73735079
O      -7.82246150     6.30744574    -3.81082985    -1.04649999     0.36501906    -0.36567748
O      -7.83430049     6.46255865    -7.87742249    -0.04580023    -0.88656736     0.00943306
O      -3.84979115     4.50930295    -2.02871214    -0.17067422    -0.34857190    -0.11795367
O      -3.93463141     4.43839160    -6.01131708    -0.24995795     0.00347212     0.00091614
O      -7.80640963     4.37827951    -9.88632275    -0.55225046     0.24643902     0.77805230
O      -7.84744088     4.34233292    -5.90497016    -0.23350149     0.33116268     1.01868019
O      -7.85302875     8.55507888    -9.97523724    -0.68996510     0.25226297    -0.11462224
O      -8.04557728     8.72005231    -5.99133309     0.01824813     0.17717685    -0.36707577
O     -11.59337011     8.67033167    -5.98230242    -1.84001189     0.06765371     0.20615100
O      -7.71775877     0.07044367   -10.14110235     1.19487860    -0.37047098     0.31220716
O      -1.97210844     4.24214755    -4.05974657    -0.01925036    -0.56330243     0.01198738
O      -2.03977044     4.17811627    -7.98418943     2.03142570     0.61822780     0.01520825
O      -5.91328214     4.23397847    -4.00319067     0.95795984    -0.36443703     0.05313918
O      -6.00504106     4.29786713    -8.08364773     2.61613649    -0.32115226     0.31601014
O      -2.06210267     0.15621238    -4.10785934     0.34324875     0.84291334    -0.43785882
O      -5.86416772     8.61247043    -7.97032844    -0.00821772     2.00218749    -0.43845334
O      -5.77626076     0.25268638    -4.03370958    -0.02558138     0.24064568     0.34829443
O      -5.95056049     0.47568433    -8.12506135     0.57910173     0.07497393    -0.89922757
