# total energy = -630.85971022 eV

CRYSTAL
PRIMVEC
        0.00279571     0.02951795    -7.98606283
       -7.83802570     0.01298533    -3.99532603
       -3.92160916     8.71933433     0.00634407
PRIMCOORD
56 1
Li     -3.89084801     2.28929307    -1.97475439     0.42751417     0.04279819     0.15874668
Li     -3.83887500     2.08209355    -6.16436927    -0.91323951    -0.20579534     0.26636570
Li     -7.82649941     2.45066287   -10.06034333     0.32950036    -0.32059846     0.43301738
Li     -7.81313387     2.23790140    -5.86322255    -0.10091241     0.14042202    -0.46835279
Li     -3.91457772     6.49983564    -1.98863193    -0.12125260    -0.06225863     0.27506697
Li     -3.93169560     6.53271450    -5.84956955     0.36004382     0.22393623    -0.10289356
Li     -7.82125505     6.36338965    -9.92316374    -0.08412690     0.35552063     0.06463832
Li     -8.02108571     6.73252612    -5.89026424     0.91322966    -0.29713561     0.13505586
Ti     -1.94647253     2.20867442    -4.22553021    -0.27609825     0.70636091     0.73855937
Ti     -5.86189609     6.59295559    -7.91227381     0.54932957    -0.13921137    -0.09401160
Ti     -7.94821544     4.49453259    -7.70568742    -0.12019130    -0.99724069     1.15275528
Ti     -7.92465520     4.38295306    -3.71346114     1.17794879    -0.64126637    -2.03691058
Ti     -3.78525764     4.28313060    -7.63462721    -1.60332469    -0.86669952    -1.25622629
Ti     -4.02002714     4.36050430    -3.69830286     0.18910870     0.40907634    -0.70051722
Ti     -2.17874110     0.02344889    -2.23385020     1.44349798    -0.59873413    -0.10102593
Ni     -5.87429220     2.48995497    -8.09259428    -0.07094160    -0.99321422     0.87242423
Ni     -5.87103346     2.21912157    -3.98526446     0.23008342    -0.04163026    -1.64529242
Ni     -9.76496585     6.82296334    -7.89009807    -0.81167075    -0.84496112    -0.70212563
Ni     -9.77440262     6.42716968    -3.94503088     0.25806009    -0.15735974    -0.19753520
Ni     -1.79919576     2.01716714    -8.02683473    -0.99418742     0.04211053    -0.24295294
Ni     -5.89858664     6.49047207    -3.98880151     0.27055024    -0.22009211    -0.03061459
Ni     -5.94681497     8.65916865    -6.01793486     0.46137831    -0.06773315    -0.15047675
Mo     -5.87347951     0.13942868   -10.25998817    -1.73968949    -1.18740263    -0.78152688
Mo     -9.88041483     8.71149725    -6.34988873    -0.48610896     1.64158489     0.10226919
O      -1.86095996     1.87287172    -1.94379037    -0.28515864    -0.38206382    -0.51703303
O      -1.90570509     1.82771288    -6.10433193    -0.03745607    -0.11855110    -0.01106045
O      -5.94120247     6.77396620    -1.93789254     0.28330071     0.31564458    -0.29215784
O      -5.87883412     6.79062401    -5.92170052    -0.39161276     0.58440302     0.03961063
O      -5.80201985     2.02911954   -10.12251143    -0.43857934     0.82059466     0.56278916
O      -5.96079918     1.98641424    -5.93318763     0.63885790    -0.75009158     0.21835565
O      -9.61901592     6.95976930    -9.73213607    -0.47604808    -0.39763784     0.01774281
O      -9.84785278     6.78487538    -6.04910489    -0.32694936     0.10243282     0.41819078
O      -3.94211853     2.32996681    -3.97998486     0.71371637     0.13989309     0.08860231
O      -3.81494150     2.26131255    -8.10031546    -0.23795436     1.61274511     0.69589960
O      -7.76616405     2.40111875    -3.98560478    -0.26700480     0.03748985     0.43704495
O      -7.85351410     2.49492906    -8.09123299    -0.31224966     0.34135259     0.09871038
O      -4.02577306     6.37865321    -3.97724136     0.96279708    -0.69474913     0.18531929
O      -3.86237559     6.21609477    -7.80288485    -0.56380603     1.07974953    -0.35953871
O      -7.73834657     6.23056696    -4.05694103    -0.96808107     0.90615236     0.51646866
O      -7.88755142     6.43193929    -7.84855370     0.55350805    -0.09653372    -0.43451300
O      -3.83016243     4.42734199    -1.96068159    -0.59401514    -0.48131406    -0.01011033
O      -4.00546366     4.02973912    -5.95155680     0.56696495     0.51305033     0.84735780
O      -7.79467227     4.47422914    -9.97004889    -0.27063098    -0.41119209     1.40018266
O      -8.17173762     4.38006114    -5.97244953     0.67332878    -0.20738915    -0.85624523
O      -3.95890572     0.10619412    -2.05024307     0.66985517     0.08182787     0.60519568
O      -8.05417990     8.73225416    -6.08952431    -0.44286550    -0.02490720    -0.08956988
O     -11.70407195     8.69161052    -5.89529299     0.96529740    -0.14058859    -0.62192493
O     -11.54311504     8.65520720   -10.06898151    -0.11871406     0.48166652    -0.27151806
O      -2.07425464     4.13790902    -4.07422048     0.87423743    -0.72854491    -0.39105200
O      -9.80902181     4.52879053   -11.90544362     1.00982479     0.59211407     0.11559645
O      -5.90223050     4.22694833    -4.09439217    -0.42991295     0.44291124     0.49834713
O      -5.88234066     4.47545414    -7.83759841    -0.60023351    -0.14027157    -0.65269888
O      -2.04858782     0.16012332    -4.14812779     0.26326992     0.63795787     1.10810979
O      -5.81281261     8.44180489    -7.90994182    -0.21578778    -0.17605310     0.19005687
O      -9.55856567     8.31983709    -4.00449511    -0.87375684    -0.12636076    -0.08538115
O      -6.01933204     0.61808390    -8.13639157     0.47120108     0.04766143     0.73433772
