# total energy = -630.73461951 eV

CRYSTAL
PRIMVEC
        0.00279571     0.02951795    -7.98606283
       -7.83802570     0.01298533    -3.99532603
       -3.92160916     8.71933433     0.00634407
PRIMCOORD
56 1
Li     -3.96411674     2.34556088    -2.08784928     0.26781293     0.04291520     0.54982534
Li     -3.92259631     2.34415971    -5.92778404    -0.27071655    -0.08971042    -0.20358916
Li     -7.84580347     2.13124814   -10.06098046     0.52391998    -0.33337548     0.40309814
Li     -7.87801383     2.11720797    -6.14166098     0.40640930     0.31779793     0.97475381
Li     -3.94746955     6.56468501    -1.93261992    -0.14343671    -0.44826402    -0.16680657
Li     -4.13819284     6.51806917    -5.74184654     0.98522818     0.17969062    -0.65209031
Li     -7.84663970     6.46401784    -9.99661339    -0.26559099     0.12975703     0.17627056
Li     -7.87936313     6.25844539    -5.92013860    -0.08700418     0.24188951     0.05408548
Ti     -1.92014765     2.27619703    -4.04596569    -0.91318735     0.83260521     0.21867983
Ti     -5.86576235     6.88405937    -7.79154016    -0.75951311     0.58488927    -1.33824494
Ti     -7.71739639     4.35213949    -7.83270093    -0.39701519     0.69519774     0.86530477
Ti     -7.87797789     4.26345613    -3.70536617    -0.12478180    -0.35971782    -0.10798948
Ti     -3.93121141     4.35185263    -7.72325880     0.71688817     0.46800213    -0.63316020
Ti     -3.98379601     4.44804049    -3.78885981     0.01249909    -1.02769404     0.87922513
Ti     -5.79894577     8.67782172    -2.20842396    -0.18926534     0.13762336     0.07904568
Ni     -5.82715118     2.38902627    -8.09568454    -0.27777962    -0.13878397     0.66476518
Ni     -5.95621589     2.32941646    -4.09595289     0.72297478    -0.68438144    -0.32051584
Ni     -9.75514381     6.49604606    -7.98131143    -0.47368775    -0.01491734     0.24198628
Ni     -9.85336125     6.32497236    -4.06032466    -0.22474463    -0.16648725     0.64203697
Ni     -1.96573616     2.10558516    -7.94950314    -0.37963054     0.90977147    -0.48257023
Ni     -6.05997554     6.46321892    -3.97069600     0.74321065    -0.02633584     0.22368767
Ni     -2.00311717     0.07583525    -5.87982971     0.56147011     1.12743924    -0.42533492
Mo     -9.75905338     8.73205020   -10.29158435    -1.70422059     0.08064896    -0.57601499
Mo     -9.78938173     8.67618214    -6.24146663     1.50600982     0.05091750    -0.31401224
O      -2.04186455     1.89845049    -2.03249385     0.52227134    -0.46088303     0.27450489
O      -1.87642626     1.96005480    -5.96529575    -0.80850505    -0.87528583    -0.22777614
O      -5.97965245     6.78583643    -2.03263963     0.82443304     0.44276391     0.50586302
O      -5.96513871     6.98158384    -5.89673287    -0.48262746    -1.13178386     0.53941294
O      -5.83965507     2.12260532   -10.08908251    -0.27956726    -1.15180635    -0.00940122
O      -5.89157088     2.04922704    -6.08612353    -0.34281535    -0.55510404     0.80975756
O      -9.86457624     6.88071123    -9.91424757     0.55404769    -0.53401018     0.04384540
O      -9.79036783     6.72038797    -6.01816975    -0.60572118     0.42284166     0.00982329
O      -3.81702589     2.40787485    -4.02097052    -1.16692488     0.25695848    -0.25232150
O      -3.90541170     2.44911466    -7.87024131    -0.10261132    -0.92948632    -0.84337437
O      -7.90244488     2.29265517    -3.97867944     0.32289813     0.82839796    -0.21030427
O      -7.80803432     2.42069503    -8.04713864     0.23076603     0.10295158    -0.15219968
O      -3.88313524     6.30330838    -3.95090381     0.26789778     0.92069049     0.24928562
O      -4.03417160     6.39560127    -7.78468883     0.53860510     0.05388895    -1.18101199
O      -7.96469371     6.19043786    -3.99720598    -0.26772156     0.89966431    -0.34764971
O      -7.80404026     6.48621998    -8.07095319     0.31569319    -1.04198547     1.55433197
O      -3.93078945     4.34216027    -2.01727201    -0.14438292     0.24280246    -0.66678950
O      -4.06632828     4.36268217    -5.99531634     0.52316159     0.24548101     1.41814314
O      -7.84907486     4.55262548    -9.93502880    -0.14159752    -0.86630849    -0.39394289
O      -7.74594342     4.32105633    -6.03722771    -0.42381726     0.52446009    -1.36385730
O      -7.96735202     8.62743071    -9.88174081    -0.16918174     0.79233441    -0.69650623
O      -8.03620503     8.66129776    -5.91626132    -0.38787440     0.31192092    -0.77786703
O      -3.91525680     8.68562504    -2.00022719    -0.08397517    -0.29316807    -0.13311230
O     -11.58906668     8.67026631    -9.90697154     1.21861787     0.82772753    -0.43966880
O      -1.92129836     4.17450821    -4.05010110    -0.08993876     0.37653956    -0.04893452
O      -2.00473436     4.20632320    -0.10955693     0.53301855     0.12799556     0.38781703
O      -5.96571205     4.39207393    -4.10636692     0.41838560    -0.55311193     0.55373083
O      -5.80699337     4.37751434    -8.07921303    -0.96197216    -0.37183854    -0.29000034
O      -1.91884789     0.24095934    -4.02390582    -0.34831851    -0.26647633    -0.02809848
O      -1.87653128     0.02972126    -7.80835189    -0.45060696    -1.02988387    -0.50848138
O      -5.91867961     0.31015993    -4.20732435    -0.13438868     0.63258280     2.30242982
O      -5.95652210     0.55135651    -7.99173673     0.61217556    -0.02629736    -0.51785316
