# total energy = -630.91231705 eV

CRYSTAL
PRIMVEC
        0.00279571     0.02951795    -7.98606283
       -7.83802570     0.01298533    -3.99532603
       -3.92160916     8.71933433     0.00634407
PRIMCOORD
56 1
Li     -4.05615271     2.42090767    -1.96518591     0.38060094    -0.33200510     0.20931069
Li     -3.94462449     2.51856132    -5.85308196     0.08936807    -0.15816041    -0.76472792
Li     -7.86067684     2.26938219    -9.96714148     0.38122520     0.19106793     0.12432992
Li     -7.70209730     2.13622315    -5.98295432    -0.62214433     0.13380749     0.45403458
Li     -3.84809974     6.82572516    -1.92179156    -0.64005247    -0.08184899    -0.27955907
Li     -4.07773656     6.58587068    -6.05474723     0.43206417    -0.42998492     0.77252991
Li     -7.99859535     6.52552322    -9.94923635     0.49526850     0.04348700    -0.23673693
Li     -7.95740780     6.47765874    -5.88199393     0.42855909    -0.01273941    -0.08975600
Ti     -1.90812278     2.19963742    -3.98822312    -1.12773018    -0.65296077    -0.35185968
Ti     -5.90752590     6.56823828    -7.96317982    -0.09445399     1.18533069    -0.40803363
Ti     -7.73375496     4.34987828    -7.72214709    -0.44115031     0.78981944    -0.63636526
Ti     -7.93513503     4.37630085    -3.67780704     2.61323305     0.51199821    -1.42750627
Ti     -3.79426460     4.45869517    -7.80947730     0.36980234    -1.05740635     2.34884354
Ti     -3.93053594     4.51548892    -3.65131686    -1.21673417    -0.35806742    -1.92581851
Ti     -2.21634414     0.04466912    -2.01198778    -0.18871031    -0.19428668     0.00348052
Ni     -5.74001640     2.05009762    -7.88347548    -0.24186967     0.55226185    -0.37895983
Ni     -5.94527772     2.28007644    -3.99527568     0.86535798     0.50994538    -0.54380310
Ni     -9.83186416     6.41629476    -8.18298773    -0.27094282    -0.57441056     0.94495251
Ni     -9.78802428     6.63499171    -4.14848661     0.02400634    -0.06226246     1.48986750
Ni     -1.91185681     2.18418096    -7.97068529    -0.26749053    -0.50429700     0.36746227
Ni     -5.88997172     6.68540761    -3.91216943    -0.80159520    -0.23685577    -0.81577860
Ni     -2.08143207     0.05449656    -5.98808617     0.55186940    -0.07203238     0.39303097
Mo     -9.99968367     8.72335891   -10.25610857     1.31781619    -0.52090850    -0.98143711
Mo     -5.82479886     0.02860014    -6.38670856    -1.62059230     0.17726568    -0.01896615
O      -2.04704289     1.94596313    -1.96425255     0.37239877    -0.05701966    -0.32274513
O      -1.85079337     1.84461505    -5.94622330    -0.78730730     0.81360948    -0.57668201
O      -5.82623705     6.81113920    -1.94355392    -0.11697801     0.21783157    -0.26740191
O      -6.02880515     6.94999289    -5.86888798     0.43661362    -0.43912641    -0.96089926
O      -5.89240450     1.84294531    -9.70996433     0.27006146    -0.39606762    -0.48573096
O      -5.84804069     1.95459949    -6.09863142     0.30022198     0.31964865     1.27282854
O      -9.90644379     6.72443699   -10.21158220     0.67747277     0.85981650     0.34512468
O      -9.87713221     6.74120669    -6.01123674     1.02133132     0.55980108     0.33452588
O      -3.80739828     2.50512307    -4.05272309    -0.55367185     0.07486154     1.25825774
O      -3.90528466     2.38263094    -7.86602946     0.01730828     0.21938740    -0.45016823
O      -7.81874086     2.39483591    -3.93530817    -0.20043992    -0.15348569    -0.21716035
O      -7.84647927     2.45682192    -7.95327528     0.61977574    -0.70365550    -0.15436071
O      -4.03841075     6.39097825    -4.06399686     0.74274799    -0.37056921     0.48964391
O      -3.84084575     6.35344704    -8.00577467    -0.54866906     1.18712383    -0.16406602
O      -7.77548272     6.36520416    -3.93230462    -0.74109889    -0.62762530    -0.17248219
O      -7.83107752     6.33901805    -7.97158401     0.18810953    -0.04584598    -0.15254515
O      -3.83898196     4.29805103    -1.92712806    -0.18864132    -0.08987708     0.81295987
O      -3.77593770     4.39366373    -5.96964518    -0.30803664     0.34144750    -2.02393498
O      -7.76894072     4.28092133    -9.95222612    -0.03055050     0.24726688     1.67500494
O      -7.66392027     4.18399232    -6.01142087    -0.15516324     0.64766122     0.66306284
O      -7.94312862     8.57241436    -2.20012545     0.18378313     0.27355377     0.68725573
O      -4.09498910     0.03083545    -6.00415068     0.93802628    -0.19241533     0.19209121
O      -7.68025731     0.08590132    -6.14034611     0.33276778    -0.07633920     0.33805717
O     -11.70923591     8.65167735   -10.00922951    -1.08495113     0.15130363    -0.03385859
O      -9.77593645     4.53424247    -7.93812939     0.48508708    -0.69489664    -0.19054823
O      -1.87296912     4.15217600    -0.03835774    -1.64658932    -0.40520837    -0.49904331
O      -5.88456303     4.16292268    -4.01450214     0.51502528    -0.20962826     0.36133470
O      -5.74041792     4.70627747    -8.01334180    -1.19617463    -0.09197578     0.22938018
O      -1.88515924     0.31281088    -4.02277828    -0.31957165     0.08787447     0.72674697
O      -5.85102025     8.64655128    -8.01614756    -0.29882914    -0.42102571    -0.10672415
O      -5.97343286     0.42089194    -4.03749987     0.12883879    -0.48065261     0.15191921
O      -9.81919765     8.20556338    -8.13579977     0.41330632     0.32502620    -1.14429314
