# total energy = -630.11690700 eV

CRYSTAL
PRIMVEC
        0.00279571     0.02951795    -7.98606283
       -7.83802570     0.01298533    -3.99532603
       -3.92160916     8.71933433     0.00634407
PRIMCOORD
56 1
Li     -3.91527385     2.04925614    -1.98407818    -0.46015830     0.12717086     0.46410021
Li     -3.86908001     2.21719896    -5.95494480     0.01465240     0.13797224    -0.22228897
Li     -7.83298071     2.53208425   -10.05752667     0.06738009    -0.57289959    -0.03871030
Li     -7.59848264     2.15966553    -6.00028963    -1.11536877     0.23183704     0.40299640
Li     -4.07003698     6.52042935    -1.98591613     0.63237046    -0.12472238     0.07858629
Li     -4.03397037     6.37041704    -6.00527054     0.38089191    -0.13532838     0.44634878
Li     -7.90578416     6.50774099   -10.00718487    -0.19674954    -0.04156927     0.17776469
Li     -7.87468358     6.43423202    -5.86410427     0.09163436    -0.01338787    -0.40342484
Ti     -1.92814526     2.12551217    -3.88791263     0.10005397     1.97410896    -0.66930635
Ti     -5.91559167     6.66412250    -7.90922792    -0.11267291    -1.54509535     0.21660324
Ti     -7.82324605     4.32776857    -7.75698977    -0.36513504     1.19166083     1.21115512
Ti     -7.73948597     4.47804708    -3.81429524    -0.17442844    -0.98839072    -1.16392833
Ti     -3.76958989     4.31128178    -7.76945066     0.56848592     0.83590097    -0.45895591
Ti     -3.87734486     4.43701414    -3.64260698     0.32749107    -0.38010026    -1.23247504
Ti     -6.05414792     8.61252960    -2.14490705    -1.54398024     0.57203439    -0.41113366
Ni     -5.85982866     2.39408378    -7.94047517     0.23041206     0.43947671    -1.43257148
Ni     -5.78978067     2.29192184    -4.15973089    -0.89009869    -0.05605384     1.77113160
Ni     -9.82695090     6.47286168    -7.87768848     0.31683555     0.18004547    -1.52871056
Ni     -9.91684666     6.62679239    -4.01980205     1.20740044     0.15939428    -0.18656202
Ni     -1.87376172     1.92888391    -7.94215770    -0.10071015     1.07066100    -1.05687000
Ni     -5.85605616     6.69971705    -3.97546955    -0.38905229    -0.91437032    -1.28871668
Ni     -1.98120677     0.03286897    -6.00344414    -0.51295470    -0.00352377    -1.06661226
Mo    -10.01720668     8.70764938   -10.13285089    -0.20556246     0.39937689     0.48525718
Mo     -9.79630771     8.64788575    -6.28939628     1.50017293    -0.39855443    -1.74720290
O      -1.82113248     1.90838106    -2.03445177    -0.40348444    -0.52753836     1.02298740
O      -1.94992021     1.83943092    -6.14570437     0.42406546     0.30883837     0.26471296
O      -5.94387740     6.75312931    -2.13132523     0.70569860    -0.50861828     0.09326484
O      -5.94037018     6.89535871    -5.98313839     0.20408058    -0.30983664     0.25837171
O      -5.91797817     1.93500184   -10.07546081     0.48254546     0.41498691    -0.06591263
O      -5.78544677     2.02987544    -5.97284500    -0.42551681    -0.01669648    -0.22440758
O      -9.92086298     6.83001848    -9.81630030     0.64756377     0.28293100     0.13778278
O      -9.82784808     6.72474083    -6.08263418     0.63843967     0.48563726     1.27378265
O      -3.82070937     2.37114089    -3.89318029    -0.39686430     0.68517130    -0.37599346
O      -3.86086683     2.44940246    -7.98044971     0.03568759    -0.71899088    -0.53173728
O      -7.87613889     2.43855536    -4.08951634     0.38865791     0.48446090     0.37177353
O      -7.82238094     2.38410306    -8.06100535     0.17863519     0.45974056     0.60089605
O      -3.93519180     6.37983623    -4.07551190     0.06883794    -0.54729893     1.12993946
O      -3.94854138     6.42118678    -8.03107809    -1.10360351    -0.26208911     0.65725922
O      -7.75967459     6.40349371    -4.02060339    -0.37021021     0.58904074     0.59029194
O      -7.83394189     6.32728703    -8.03357006    -0.27815667     0.17772824     0.38291205
O      -4.09977459     4.42480518    -1.91922403     0.57391914     0.09071242    -0.02621213
O      -3.83540108     4.28101213    -6.01817203    -0.13895364     0.63862499    -0.17730197
O      -7.79423833     4.39184715   -10.05069550    -0.28073623     0.48018774     0.18276693
O      -7.77046652     4.53557144    -5.97218825    -0.12269771    -0.83412440    -1.12613457
O      -7.93233949     8.61674806   -10.00208248     0.38435373     0.71749167    -0.62939065
O      -4.05671454     0.21155442    -6.14057030     0.42206212    -1.56619015     0.73484056
O     -11.55004328     8.61159548    -6.03956433    -1.96865616     0.72635756     0.02325931
O      -3.94883449     8.69044551    -6.04220634    -0.10153967    -0.08800489     0.43570298
O      -9.74601382     4.30968153    -8.05752371    -0.98700380    -0.58690108     0.45787517
O      -9.74931470     4.83302273    -4.20690368    -0.47455907    -0.77083690     0.91742213
O      -5.72746573     4.21105307    -4.10254337    -1.45109301    -0.34919047    -0.06185039
O      -5.96911537     4.40951498    -8.03457427     2.05066414    -0.32139491     0.23632135
O      -1.99706749     0.35692726    -4.11389618     0.05575395    -2.08810533     1.30222332
O      -6.01877648     8.41416697    -8.23411847     0.68939626     1.46324711     0.99690028
O      -6.11953052     0.14027192    -3.95559334     1.35065046    -0.15310259    -1.22196646
O      -5.90843677     0.56727408    -8.06979138    -0.03082386    -0.11910024    -0.09552106
