# total energy = -630.39113676 eV

CRYSTAL
PRIMVEC
        0.00285542     0.02004370    -7.95977623
       -7.82940539     0.00763210    -3.98158109
       -3.91729101     8.74642787     0.01461334
PRIMCOORD
56 1
Li     -3.81583096     2.39687156    -1.86111157    -0.46399723    -0.25929962    -0.56319341
Li     -3.92677438     2.15529009    -5.94677619     0.39558870     0.30907958     0.18149157
Li     -7.92787327     2.16398216    -9.76816311     0.53029232     0.44661665    -1.27396857
Li     -7.87323825     2.08586296    -5.99809610     0.75404264     0.03382811     0.37731203
Li     -3.85383452     6.26628258    -1.95150480     0.19909185     0.35100913     0.23937747
Li     -4.03609698     6.46847899    -5.90688770     0.53031274    -0.23323834     0.33652496
Li     -7.84531730     6.35351941    -9.96642338    -0.23737519     0.36454709     0.15453906
Li     -7.65691845     6.38107279    -5.97700366    -0.91680885     0.39123920     0.50502517
Ti     -1.97089703     2.22535993    -4.01735663    -1.32188274    -0.57952851     0.11615808
Ti     -5.79271849     6.72085380    -8.02866815     0.36800733    -1.13627108     0.82252607
Ti     -7.76904640     4.41450424    -7.71333977    -0.13605638    -0.61634743    -0.48141766
Ti     -7.82613288     4.48498236    -3.82387830     0.34886290    -0.91921242     0.90914574
Ti     -3.82882879     4.28162318    -7.68405277     0.10658100     1.32829528     1.64051096
Ti     -3.92730048     4.49079212    -3.79338576    -0.71241606    -1.38236324    -0.17103228
Ti     -6.12845605     8.67436785    -2.10206107    -0.86117933     0.45405939    -0.93887481
Ni     -5.82167041     2.35392196    -7.94297182    -0.25965861    -0.20603274    -0.68979710
Ni     -5.95116135     2.25330865    -4.09328844     0.53106367     0.19809934     0.71172649
Ni     -9.71665126     6.64989559    -7.80211921    -0.52749899    -0.50177408    -1.49475833
Ni     -9.81021257     6.50234455    -3.89618788     0.29071800     0.18524641    -0.52335836
Ni     -1.88711691     2.03124843    -7.99940448     0.30411739     0.71387039     0.74291732
Ni     -5.93014078     6.69144340    -4.02709050     0.42178685    -0.46996144     0.24526829
Ni     -5.95279018     8.73275981    -6.00354451     0.45053165    -2.42312456     0.64909123
Mo     -6.10859731     0.06103788   -10.12464318    -0.49548827     0.35225366    -0.06932566
Mo     -9.68233501     8.63812513    -6.29751125    -1.96462284    -0.28743546     0.11646145
O      -1.87385175     1.83888595    -1.97500736    -0.58711312     0.26524043     0.03045657
O      -1.91269259     1.72219034    -6.02716151    -0.95766510     2.19708571    -0.07246702
O      -5.80911285     6.73930280    -2.01179749    -0.28022764     0.32098132    -0.62350580
O      -5.87558030     6.82113422    -6.04106322     0.00181454     0.44422525     0.84596726
O      -6.02944052     2.01789675   -10.06101119     0.97889314    -0.29781168     0.26563498
O      -5.74277948     1.98341036    -5.96445513    -0.93956474    -0.66470427     0.06501279
O      -9.80626888     6.95362252    -9.82045517    -0.05414872    -0.29019947     0.69243273
O      -9.71584158     6.65664307    -5.96848766    -0.26588696     0.96781511     0.57886933
O      -4.02090106     2.37468016    -3.98822285     1.25382512     0.65228904     0.31007316
O      -3.77372415     2.44101094    -7.88410163    -0.35830086    -1.80767386    -0.70206556
O      -7.87857858     2.43223125    -3.95057961     0.26229403     0.31942924    -0.64210666
O      -7.83834275     2.42287560    -7.95392151     0.36326405     0.36371136     0.41240863
O      -3.80682702     6.39958209    -3.90915038     0.04042985     0.11662845    -0.16059351
O      -3.87089732     6.26282854    -7.83639237    -0.90720452     0.97364562    -0.83989469
O      -7.90197571     6.55616506    -4.00457569     0.41886087    -1.81701673     0.51646211
O      -7.78376444     6.41850232    -8.00054738     0.07160594    -0.89574163     0.43126395
O      -3.79434026     4.30229937    -2.01151090    -0.03259482     0.21342139    -0.31589834
O      -3.90834008     4.29096281    -5.88558398    -0.10195671     0.19237392    -0.76907826
O      -7.89302490     4.42237285   -10.02142490     0.28042714     0.17937347     0.46007457
O      -7.97259360     4.37375333    -5.95767421     0.18819350     0.25701037    -0.78327073
O      -7.94872860     8.74095589    -2.04634291     0.35716645     0.12121067     0.59012954
O      -7.92148581     8.53162391    -5.87941523     0.55702032     1.00858552    -0.78909469
O     -11.49017766     8.69989385    -6.09727063     0.24566927    -0.16823362     0.33544661
O      -0.08188751     0.05202732    -5.77214078     1.52013499    -0.60865086    -0.85647220
O      -1.92543462     4.06900423    -4.11596994    -0.15581131     0.98879552     0.24091433
O      -9.79569626     4.61032987   -11.75270190     0.36970150     0.50677385    -1.20321534
O      -5.87475552     4.48538000    -4.05003601    -0.05803263    -0.05249079    -0.02019640
O      -5.82252084     4.33417421    -8.04599094    -0.67077868    -0.29457865     0.44911013
O      -2.14367969     0.28822632    -3.98409631     0.72088704    -1.21234359     0.38045398
O      -5.69986888     8.49406440    -8.04747236    -0.36601340     1.12178421    -0.16859003
O      -6.03580883     0.10886585    -3.95854901     0.08890779     0.05859586    -0.31115617
O      -5.83587891     0.52072401    -8.07831908     0.67711371     0.32285618     0.07302171
