# total energy = -630.37649034 eV

CRYSTAL
PRIMVEC
        0.00279571     0.02951795    -7.98606283
       -7.83802570     0.01298533    -3.99532603
       -3.92160916     8.71933433     0.00634407
PRIMCOORD
56 1
Li     -3.82576219     2.51937957    -1.98724694    -0.04070032    -0.53489553     0.48767752
Li     -3.93257909     2.07423020    -6.01572897     0.07648286    -0.20165653     0.04019559
Li     -7.88479081     2.08281899   -10.07922706     0.31230625     0.10493654     0.45847944
Li     -7.80107584     2.35576753    -5.92498275    -0.13910857    -0.41202739    -0.03904540
Li     -4.05485891     6.55402789    -1.91746755     0.69580811    -0.46981990    -0.01844054
Li     -3.91795658     6.57149383    -5.91927569    -0.12405797     0.41993512     0.30836301
Li     -7.98802486     6.45886892    -9.97479074     0.30147287     0.00064868     0.05282758
Li     -7.95981918     6.65488475    -5.95974715     0.81440684    -0.28587595     0.63889167
Ti     -1.99510831     2.30680827    -4.09453538     0.12470416    -1.82874008    -0.14066932
Ti     -5.97486381     6.65341731    -8.03594921     0.44469488     0.50387300     0.87147582
Ti     -7.81875518     4.33782815    -7.79509522     0.62388431     0.08520642     0.04567897
Ti     -7.83179772     4.33939055    -3.79071018     0.16749635     0.12017986     1.04928122
Ti     -3.87684085     4.44282425    -7.59514741    -0.45201138    -0.60373271    -3.46722831
Ti     -3.95759603     4.44876501    -3.80561360    -0.89120248    -0.79959404     0.74394569
Ti     -5.82121439     8.61690422    -2.33169319    -1.39437636     1.45067658     0.91063473
Ni     -5.84326237     2.38440052    -8.01508696    -0.29448307     0.09475268    -0.68264950
Ni     -5.86397660     2.24157851    -3.99102032     0.45945411    -1.42483525     0.49753942
Ni     -9.84701942     6.52887043    -7.79768680    -0.33162516     0.08590635     0.73788998
Ni     -9.77867643     6.29275522    -4.07597245    -0.20554632    -0.17814884     0.45454643
Ni     -1.91147887     2.21799907    -8.04470394    -0.59162029     0.08981805     0.23184769
Ni     -5.87663793     6.49865555    -3.96663178    -0.56583190     0.39041110    -0.30858994
Ni     -5.89518064     8.68759084    -6.02021326     0.01810209     1.62469602     0.32053918
Mo     -9.76125055     8.73720991   -10.17442120     0.73397986     1.07255783     1.61132308
Mo     -9.83791631     8.74011601    -6.31526831     0.52651466    -0.33724356     0.71563241
O      -1.85115501     1.86952457    -2.09216081    -0.63683404    -0.02204347     0.21402896
O      -1.96817259     1.98501861    -6.07621143    -0.29131346    -1.59788221    -0.06907949
O      -5.97895948     6.67858646    -2.00075319     0.26038239     0.15735451    -0.26044271
O      -5.87582973     6.92656345    -5.85243570    -0.11282594    -1.24024445    -0.61573484
O      -5.65045656     2.04126226    -9.90060068    -1.54018697     0.21401146    -0.99444945
O      -5.87216195     1.91812577    -5.94405570    -0.43838063     0.88239741     0.06896168
O      -9.78916061     6.95918432    -9.58261017    -0.08807342    -0.12822615    -1.18987449
O      -9.81616013     6.85191970    -5.86220938    -1.37337634    -0.96367516    -0.77350476
O      -3.92627614     2.41588073    -4.01926397     0.35336637    -0.10546178    -0.19485037
O      -3.98004915     2.40853822    -7.93811227     0.70704663     1.53093558     0.27388000
O      -7.76315690     2.36413719    -3.94702417    -0.57802877     0.08382116    -0.27618194
O      -7.85112042     2.44307439    -8.07731664     0.29893774    -0.42457519    -0.21071866
O      -3.97456391     6.33913294    -3.93329480     0.65266455     0.94756752     0.06771309
O      -4.00010514     6.46789826    -7.88310711     0.59685261    -0.87551677    -0.46646540
O      -7.77048725     6.31368093    -3.98661777    -0.83209315    -0.46307660    -0.45391243
O      -7.97347895     6.23465859    -7.81501273     0.65929836     1.67072378    -0.66646084
O      -4.01662388     4.45221738    -2.04403878     0.46757609     0.08493909    -0.10478617
O      -3.90958359     4.59522628    -5.91683007    -0.19587556    -0.11681265     1.85493564
O      -8.07936729     4.54355470    -9.99027505     0.55304895    -0.51338893    -1.00962779
O      -7.99274004     4.22124744    -6.04364039     0.05473004     0.56500321     0.50668352
O      -3.92141833     0.04531989    -2.03682601    -0.76327925    -0.84338494    -0.23943119
O      -8.07513004     8.57089009    -5.96528694     0.15323383     1.01641223    -0.59695569
O      -3.92027285     8.68797722    -2.15574713     0.61538977    -0.71375125     0.47678806
O      -7.65340424     0.14701786    -9.92519061     0.16963130    -0.36081507    -0.31565795
O      -1.99542976     4.10833558    -4.13268931    -0.36079160     1.33720438     0.61727957
O      -2.01826223     4.24106717    -0.07442571     0.31183772     0.18741608    -0.11221737
O      -5.92089134     4.01035001    -4.08205111     0.32460975     1.87625476     0.07032285
O      -5.88844544     4.64045957    -8.04179602     0.00336038    -1.52798004     0.59995636
O      -2.01393273     0.17249377    -4.11661903     0.11848344     0.71198424    -0.69350352
O      -6.02719199     8.47967702    -8.06676263     0.40164072     0.18275516     1.02689762
O      -5.90109794     0.26612621    -3.94052775     0.00591300     0.12102049    -1.64312670
O      -5.91919811     0.56815963    -8.04150736     0.51882839    -0.66634199    -0.18055033
