# total energy = -630.26401741 eV

CRYSTAL
PRIMVEC
        0.00279571     0.02951795    -7.98606283
       -7.83802570     0.01298533    -3.99532603
       -3.92160916     8.71933433     0.00634407
PRIMCOORD
56 1
Li     -4.03618850     2.22049790    -1.86447828     0.16601370     0.07120001    -0.14321106
Li     -4.02352023     2.39983367    -5.74603804     0.35644415    -0.41176222    -1.27132796
Li     -7.83244670     2.34248152   -10.03559741    -0.14391099    -0.18086524     0.10039318
Li     -7.91325299     2.52427632    -5.91024675     0.62266150    -0.97510226     0.40326859
Li     -3.80121294     6.32167603    -1.87673096    -0.31455276     0.28675983    -0.07685769
Li     -4.01213806     6.29723328    -6.02022216     0.15789851     0.51701391     0.79276841
Li     -7.94270439     6.29482517    -9.98059342     0.30648900     0.94703089     0.47801854
Li     -7.72829912     6.25387476    -5.86920671    -0.36835088     0.37680410    -0.05006368
Ti     -1.96871482     2.40846235    -3.90811916    -0.62051499    -2.55339770    -1.23391725
Ti     -6.02061426     6.65158195    -8.07266416     0.88183369     2.09083418     0.83652429
Ti     -7.77565230     4.32974402    -7.80829152     0.20731126     0.75041579     0.14217867
Ti     -8.03107307     4.48758457    -3.73459714     1.90975046    -0.70597138    -0.58236436
Ti     -4.02295777     4.38446868    -7.76378386     0.71894840    -0.13622062    -0.25737594
Ti     -4.16900875     4.38781380    -3.75329314     0.06740292     0.80030559     0.92048656
Ti     -1.86204663     0.03119474    -2.15722936     1.57159981    -0.19234811     0.40124924
Ni     -5.88206852     1.87371228    -8.05446697    -0.03946809     0.86265994     0.34292326
Ni     -5.94118607     2.24097868    -4.00184305    -0.06837597     0.75083541    -0.32452354
Ni     -9.84907354     6.65561114    -8.01036378     0.55924416     0.01900544     0.38146668
Ni     -9.78093360     6.57406441    -3.96273697    -0.33910083    -0.18618571    -0.21395419
Ni     -2.07103537     2.30194546    -7.94356869     0.29404212    -0.41208831     0.54167134
Ni     -5.90395708     6.75658848    -3.93407726     0.23766348    -0.72117663    -0.41014372
Ni     -5.79508012     8.72015173    -5.92935925    -0.52065965     0.82672030    -0.74021029
Mo     -9.73519984     8.61133825   -10.42443731    -0.90542198     0.50970914     1.50344552
Mo     -9.64015057     8.65469336    -6.24378116    -0.04338290     0.38177862     0.07726007
O      -1.93242185     2.00082300    -1.99205084    -0.40579355    -0.43392855     0.26801729
O      -1.99316640     1.85722709    -5.98827946     0.37194651     0.41304722     0.00726609
O      -5.87816279     6.71137247    -1.98060082    -0.39690906     1.12914315    -0.41708559
O      -5.95823074     6.90232963    -5.87083816     0.93298869    -0.38486213     0.62149056
O      -5.93071661     1.92425413    -9.98234232     0.06606089    -0.16654073     0.38494433
O      -5.85716777     1.87057281    -6.04740317    -0.98388236     0.36921367    -0.09835735
O      -9.80267004     6.76721142   -10.01103799     0.56798390    -0.95364669     0.23649596
O      -9.78492830     6.77721847    -5.91457602     0.33066877    -0.19017620     0.53776728
O      -3.93424292     2.44623134    -3.90821913    -0.23363676     0.03671584     0.18268145
O      -4.03926986     2.39847212    -7.86930722     0.69787026    -0.00320152    -0.86508277
O      -8.01892443     2.53901498    -3.95886107     0.84791218    -0.44139491    -0.03252967
O      -7.81241166     2.39557793    -8.04061682     0.00048346     0.43109580     0.47872188
O      -3.80235709     6.30032789    -3.91838051    -1.45095925     0.08749471    -0.49332123
O      -3.91612649     6.34517835    -7.88404792     0.17848641    -0.28064717    -0.54444875
O      -7.81980156     6.51762706    -3.92014373    -0.32306627    -1.19835218    -0.13316870
O      -7.95326155     6.45532803    -7.88897226     0.48738895    -1.12140075    -0.65058145
O      -3.97713496     4.37277956    -1.94350645     0.23923958    -0.42576872    -0.90884022
O      -3.86901061     4.28454907    -5.98619621     0.00438410     0.57738482     0.22727784
O      -7.89498711     4.48344514    -9.95956198     0.30398312    -0.40466139     0.66133317
O      -7.70676662     4.31253039    -6.02807627    -0.38917418     0.89088443    -0.72511511
O      -4.00198007     0.08137429    -9.99177962     0.28495871    -0.34133972     0.06977106
O      -3.95886318     0.04398152    -6.02624643    -0.90985276    -0.40259591    -0.29676111
O     -11.69612187     8.60261060    -5.91962160    -0.79164290     0.53241250    -0.46616751
O     -11.53056005     8.57358003   -10.20026999    -0.30521418     0.83236092     0.42535619
O      -1.92141945     4.17792062    -4.09319134    -0.14081078     1.39787226     0.47819332
O      -9.78061929     4.45633410    -4.15290519    -2.33455582    -0.17618956     0.20026428
O      -5.97968319     4.29372755    -4.06626311    -0.13843988    -0.91688043     0.31852978
O      -5.87098206     4.73822450    -8.00963638    -0.87845548    -0.71684315     0.12111620
O      -1.94892348     0.33621884    -3.99301310     0.25989435    -0.55115319     0.15313351
O      -5.86691475     8.51747323    -7.84410303    -0.26870764    -0.28689789    -0.64630108
O      -5.71090200     0.36986551    -4.16098184    -0.49175864     0.50182768    -0.53268086
O      -9.87292275     8.67030824    -8.08624410     0.11997988    -0.33337163    -0.09804225
