# total energy = -630.80445673 eV

CRYSTAL
PRIMVEC
        0.00285542     0.02004370    -7.95977623
       -7.82940539     0.00763210    -3.98158109
       -3.91729101     8.74642787     0.01461334
PRIMCOORD
56 1
Li     -3.86017210     2.37267909    -1.92929670     0.00591277     0.01675794    -0.07664867
Li     -4.02790805     2.14094625    -5.90255024     0.02921241    -0.22078841    -0.11805267
Li     -7.82145086     2.36490418   -10.02008114    -0.04720246     0.17845016     0.00502389
Li     -7.79746163     2.30189573    -5.94191741    -0.16966260    -0.33051475     0.27103371
Li     -3.99836566     6.56054903    -1.87785623     0.33827165    -0.31183298    -0.33664473
Li     -3.71189037     6.47276786    -5.75721719    -0.36175023     0.12641678    -0.14480242
Li     -7.98445745     6.54551595    -9.81738425     1.12597139    -0.46944094    -0.35011243
Li     -7.61144482     6.59989454    -5.97037884    -1.48983735     0.23950659     0.81307364
Ti     -1.90843422     2.14078869    -4.09590411    -1.37804287     0.05032758     0.81346059
Ti     -5.79322525     6.51855637    -7.79866386     0.46290211     2.18892548    -1.46691333
Ti     -7.74634745     4.36230242    -7.72584424    -1.96666271    -0.66732717     0.24702955
Ti     -7.82741762     4.48385388    -3.81196732     0.41846122    -0.16589578     0.10161628
Ti     -3.85413823     4.29965797    -7.69984008    -0.09492970     0.42640502     0.45220059
Ti     -3.95080065     4.40120046    -3.83319405    -0.19255892    -0.64347293     1.05125953
Ti     -6.07166505     8.70995290    -2.01967598     0.55276183     0.80795629     0.50404879
Ni     -5.93402846     2.41553320    -8.04154068     0.52633463     1.38745763     0.47542855
Ni     -5.93524437     2.12793080    -3.99002800     0.03275309     0.07267295    -0.77524471
Ni     -9.71712056     6.53258391    -7.77583635    -0.24442918     0.08263410    -0.20903178
Ni     -9.76543923     6.51120410    -3.94015231    -0.58738244    -0.28931285    -0.58066097
Ni     -1.86752604     2.18472160    -7.92177149    -0.13989809    -0.38331815    -0.79005402
Ni     -5.84775190     6.64862546    -3.94508302    -0.24348611     0.31372650     0.44698010
Ni     -5.87985395     8.71633216    -6.00619522     0.21319926     1.09223812    -0.17553792
Mo     -5.92312223     0.11465287   -10.25735949    -0.38115036    -1.41959583    -0.68404680
Mo     -9.86723198     8.65408338    -6.36462800     0.48745249     0.94218317     1.06210592
O      -1.90732233     1.97570588    -1.97324313    -0.26415492    -0.94928895    -0.15683672
O      -1.86145173     1.80809073    -6.08052281    -0.77837818    -0.07401941     0.80789581
O      -6.01928030     6.80304927    -1.97244728     0.69410599    -0.08828584     0.28679362
O      -5.81335344     6.92271125    -5.92972527     0.01711326    -0.92847205     0.15170808
O      -5.92315078     1.97091841   -10.10911716     0.21929210     1.56592482     0.62932642
O      -5.89797416     1.90652172    -5.87100933    -0.47260325    -0.06349586     0.17154978
O      -9.68516580     6.94715562    -9.65424502    -0.61239177     0.40965081     0.02983689
O      -9.76775758     6.78281015    -5.88442343    -0.07576452    -0.75940145    -0.99314516
O      -4.05836462     2.44027092    -3.87837121     0.78213522    -0.55774152    -1.07255722
O      -3.81591952     2.45596576    -7.88390453    -0.33061738    -0.46336250    -0.31971793
O      -7.82160543     2.52187949    -3.99723816     0.09053327    -0.86665915     0.22187980
O      -7.92612581     2.38047123    -7.99400680     1.88433409    -0.08814388    -0.30264934
O      -3.71863958     6.33215046    -3.81846669    -0.21761218     1.12657345    -0.87774009
O      -3.95580341     6.43094297    -7.84636010     0.05127031    -0.47762325    -0.33028696
O      -7.81840047     6.39956993    -4.02173705    -0.58803712     0.52584134    -0.05963439
O      -7.78837078     6.24731702    -7.87887898    -0.25459388     0.71795224     0.52960183
O      -3.90254282     4.47771386    -2.05628941    -0.18695414    -0.36541970     0.78220193
O      -4.05032064     4.49770714    -5.92118999    -0.07931540     0.03886123    -0.61889746
O      -7.91204576     4.46662521   -10.02343845    -0.16181177    -0.54216697     0.99242209
O      -7.91514541     4.21001552    -5.96159620     0.08955111     0.83888764    -1.06929918
O      -3.97371712     0.13584657    -2.11529063    -0.81848128    -0.16700966     0.49774993
O      -8.09434466     8.69769113    -5.94918590     0.54174341     0.14227792    -0.47135191
O     -11.67178974     8.61438501    -6.02506754     0.00019767     0.34700578    -0.22478048
O     -11.56847173     8.72149825    -9.93089834    -0.63059016     0.15618200     0.02261723
O      -1.98277324     4.00003997    -4.18905420     0.10010520     0.37381392     0.43059598
O      -2.09227077     4.65623670    -7.90165159     2.54526440     0.34021464    -0.40893056
O      -5.89446637     4.79257997    -3.97853819    -0.11398255    -0.14034551    -0.24631229
O      -5.88728219     4.37661451    -8.08878756     0.38575778     0.23395803     0.40291954
O      -2.05540103     0.04962907    -3.95759058     0.66775056     0.22455598    -0.67551567
O      -5.91808398     8.53262516    -7.97281068     0.04026873    -1.45015592     0.28589075
O      -9.91048833     8.37398471    -4.07725761     0.55843258     0.25229687     1.20011452
O      -5.87524018     0.70132949    -8.07584494     0.13617616    -2.43714292    -0.33162105
