# total energy = -630.88017707 eV

CRYSTAL
PRIMVEC
        0.00285542     0.02004370    -7.95977623
       -7.82940539     0.00763210    -3.98158109
       -3.91729101     8.74642787     0.01461334
PRIMCOORD
56 1
Li     -3.94796757     2.07895972    -1.85828574    -0.14047768     0.10185341    -0.29416220
Li     -4.09516838     2.06545071    -6.02418688     0.10134356     0.31921780     0.15206372
Li     -7.75772924     2.24464142    -9.99532729    -0.38405201     0.13503204     0.08597094
Li     -7.90311895     2.29517176    -5.87036519    -0.17531998     0.08653089    -0.21077304
Li     -3.81285789     6.20299112    -1.79199767    -0.09380276     0.58325506    -0.59525779
Li     -3.94922658     6.29489081    -5.88337850     0.24001978     0.63985255     0.30884739
Li     -7.89691921     6.43551850    -9.99068334     0.08382754     0.18931693     0.76570773
Li     -7.85357893     6.65141006    -5.83858649     0.12421863    -0.13675829     0.23534573
Ti     -2.06379745     2.19691211    -4.15961335     0.57240420    -0.30575069     0.68815664
Ti     -5.87013371     6.68821474    -7.96189842    -0.39488396    -0.17310123    -0.00880502
Ti     -7.79916734     4.45222485    -7.60307874    -0.33665873    -0.80997259    -0.41484895
Ti     -7.82411039     4.43853247    -3.69149160    -0.05250196    -0.65754444     1.12186715
Ti     -3.80773750     4.41982414    -7.67043284     0.49494438    -0.71733208    -0.91878931
Ti     -3.92521197     4.35388388    -3.67533555    -0.22106880    -0.26190568    -0.92961346
Ti     -5.71049128     8.70222593    -2.07543017    -0.55008977     0.24019641    -0.98962148
Ni     -5.89345346     2.40127539    -8.13770919    -0.40231635     0.91373787     0.96084408
Ni     -5.94354076     2.25277417    -4.15458339    -0.28934808    -0.84017220     1.07706688
Ni     -9.87105485     6.63631426    -7.88893536     0.84911497    -0.05120394     0.25905693
Ni     -9.76119168     6.68696323    -3.97106245    -0.10409065    -0.40672457     0.34510226
Ni     -2.06240025     2.07556520    -7.89644310     0.46247447     0.28312405    -0.27982932
Ni     -5.80754903     6.53396059    -4.04612958    -0.40544225     0.35052010     1.50127446
Ni     -5.78940607     8.71857245    -5.89631572    -0.29064969    -0.20563992    -0.00930866
Mo     -9.76567787     8.65388766   -10.21089436    -0.47236706     0.92517489     0.01178570
Mo     -9.78327210     8.68912435    -6.41266714    -0.00959182     1.01456557     0.69528486
O      -2.05050830     1.79415922    -1.82607941     0.04049183     0.41582571     0.25677557
O      -1.92990674     1.84193778    -5.99600046    -0.33954140    -0.29598626    -1.04089406
O      -5.73149638     6.76674585    -1.95570544    -0.93331863    -0.35043451     0.11645903
O      -5.91386037     6.89123479    -5.86615512     0.48731083    -0.30944616    -0.15625366
O      -5.89143068     1.99186477   -10.12107188     0.36194864    -0.25543131    -0.29699199
O      -6.02307548     2.04489152    -6.10078198     0.73252372    -0.55575089     0.42986246
O      -9.79698013     6.75944153    -9.80013854    -0.02045534     0.40655121     0.33592925
O      -9.75732626     6.82615100    -5.95799951    -1.09942605    -0.12299576    -0.48228834
O      -3.95837070     2.33036379    -4.06094565    -0.30729356     0.25994997     0.07621634
O      -3.94683390     2.50282858    -7.86267071     0.28775264    -0.38746953    -0.84348587
O      -8.03149931     2.50729891    -3.95533572     0.48989252    -0.62215634     0.04199448
O      -7.98011459     2.52214964    -7.99783746     1.87623742    -0.62042032    -0.00789915
O      -3.86486375     6.32383888    -3.79582140    -0.50168531    -0.17156285    -1.13080135
O      -3.96919332     6.42536054    -7.89400875     0.08273278     0.01870054     0.33858419
O      -7.81731632     6.39036991    -3.88802441     0.62891044     0.07718124    -0.62912059
O      -7.96019035     6.41719498    -7.75554205     0.95738028    -0.47607700    -1.09422529
O      -4.03649308     4.38803869    -1.96677046     0.16427573    -0.48662241     1.80594763
O      -3.91506170     4.34146683    -5.94910542    -0.18882877     0.56803059     1.49688265
O      -8.07464326     4.43350805    -9.84262370     0.47246232     0.28911754    -1.19234704
O      -7.93282206     4.35885404    -5.85678228     0.13346319     0.34428587    -0.06253752
O      -7.87532892     8.60647202    -2.18961879    -0.91075628     0.01908503     0.56823932
O      -4.17948160     0.02305835    -5.85575975     0.21279275     0.23867654    -0.82519147
O      -7.71050733     0.06185978    -6.00200920    -0.22386251    -0.40956954    -0.33550220
O     -11.60849066     8.62001836    -9.94565500     1.04389130     0.30790015    -0.00032319
O      -2.01453900     3.99567388    -3.71330457    -0.52252233     1.17977054    -0.55907475
O      -9.79364789     4.80159278    -3.96502755    -0.27736666     0.02122456    -0.30494242
O      -5.88547192     4.10761337    -3.83807913    -0.61139204     0.32259123    -1.00050412
O      -5.88239567     4.40569699    -7.92755512    -0.50114237     0.36148723    -0.07074857
O      -1.87060543     0.23170535    -3.97510257     0.09739597    -0.10058351     0.32662508
O      -6.00686974     8.48395835    -7.91238099     0.42664635     0.25607544    -0.08480780
O      -5.96389612     0.17233139    -4.09733359    -0.04360769    -0.02135736     0.58598245
O      -5.66911103     0.64492363    -8.16811543    -0.61886440    -1.62147369     0.08717552
