# total energy = -631.06737803 eV

CRYSTAL
PRIMVEC
        0.00285542     0.02004370    -7.95977623
       -7.82940539     0.00763210    -3.98158109
       -3.91729101     8.74642787     0.01461334
PRIMCOORD
56 1
Li     -3.82524978     2.15057331    -1.94447347    -0.70779837     0.45315751     0.06495882
Li     -4.05057880     2.07116638    -5.91769468     0.04700785     0.08168862    -0.14797209
Li     -7.83986326     2.40618931    -9.89489488     0.22251214     0.14665840    -0.82912665
Li     -7.87836139     2.03676271    -5.85507686     0.45090629     0.10383335     0.06362862
Li     -3.91128252     6.48951754    -2.03221714    -0.14188773    -0.06447438     0.45958218
Li     -3.94519384     6.77451145    -5.70448461     0.23073371    -0.41589029    -0.56559352
Li     -7.81251136     6.63292175    -9.93193696    -0.26866790    -0.34828118     0.30646401
Li     -7.72298820     6.76449837    -5.89531414    -0.48964011    -0.11622867     0.12731926
Ti     -1.91458936     2.11239245    -4.06662642    -0.31801181    -0.48992380     0.09641157
Ti     -5.81429310     6.47087721    -7.94399202     0.36828349     0.18987183    -0.39633108
Ti     -7.88405311     4.32032033    -7.60233428     0.85399092     1.01212439     0.20999619
Ti     -7.80883205     4.45986494    -3.71919266     0.69510859    -0.16593734     0.53173268
Ti     -3.79669384     4.31789790    -7.74688829     0.33964642     0.65902806     0.25697076
Ti     -4.01338146     4.36357857    -3.74906317     0.04949800     0.87008404     1.25711781
Ti     -2.22021417     0.01033852    -1.91160067     1.13903274    -1.22058745     0.40707547
Ni     -5.86399188     2.36969623    -7.92739175     0.23115842     0.21924247    -0.66702058
Ni     -5.94400512     2.28783091    -3.95302445     0.31143101    -0.56615734    -0.44855624
Ni     -9.72716779     6.42187299    -7.84723948    -0.24626841     1.09893444     0.29184207
Ni     -9.77232482     6.41316886    -3.94522115    -0.14026171     0.73607864    -0.73765814
Ni     -1.87774819     2.20912894    -7.91302941    -0.70105352    -0.18171860    -0.86493160
Ni     -5.89730678     6.72990473    -4.08707820     0.55655912    -0.90763958     1.43735070
Ni     -2.00391041     0.11650346    -6.03541243    -0.09198875    -1.71995221    -0.73669509
Mo     -5.98780601     0.07919891   -10.34551982    -0.81896698    -0.17191195     1.78907197
Mo     -9.83009488     8.62613814    -6.33797038     1.15265364     0.86545395    -0.57110858
O      -1.96420667     1.91175692    -2.04804794     0.68220860    -0.05796862     0.39859313
O      -2.02596760     1.93730650    -6.09449723     0.27927802     0.23559434     1.16240587
O      -5.85408093     6.79728121    -2.04402366    -0.34097673     1.03976847     0.43310334
O      -5.88661237     6.98819364    -6.01727867     0.42893413     0.30242670     0.51115977
O      -5.90297175     1.93861869   -10.04607035     0.34351017     0.78320227    -0.28146791
O      -5.96217256     1.89892673    -5.81196297     0.45370017    -0.17321861    -0.03685697
O      -9.80282827     7.08490273    -9.59864687     0.57069190    -1.13481191    -0.73040168
O      -9.72485549     6.75061406    -5.95999907     0.14915118    -0.37482926    -0.46083447
O      -3.93583167     2.42751536    -3.84335247    -0.29900937    -0.67784504    -1.28475969
O      -3.90814584     2.47113294    -8.04429388     0.31799551    -0.86069795     0.77614268
O      -7.82984510     2.48836315    -3.94813297     0.09894613    -0.39354988     0.08297313
O      -7.79809989     2.36759023    -8.08356095    -0.48572538     0.58322477     1.48856840
O      -3.79736553     6.40624214    -3.87563185     0.34022022    -0.74539852    -0.49626667
O      -3.93823297     6.36778569    -7.94033860     0.34190803    -0.21227949    -0.13050152
O      -7.84587925     6.40818231    -3.91354216    -0.20725061     0.56157911    -0.39918188
O      -7.74847941     6.37270928    -7.82989559    -0.95848845    -1.19523425    -0.55758175
O      -3.96689027     4.42656143    -1.95024462     0.27712920     0.22766728    -1.26595658
O      -4.01107001     4.51225143    -6.01251209     0.57353295    -0.25975285     0.79255391
O      -7.82246661     4.43511167    -9.90802885     0.04930792     0.01356164     0.36391032
O      -7.63661119     4.39154545    -5.85229383    -0.55413605    -0.32141514    -1.83782574
O      -7.92291340     8.76559370    -9.87111231     0.11324188     0.41864032    -0.64872032
O      -4.02298258     0.07471047    -6.12175742    -0.66719484    -0.23576248     0.32222367
O     -11.57539727     8.65527027    -6.04654037    -0.85944470     0.34735249     0.22572348
O     -11.64773236     8.73908101   -10.08408718    -0.48286725     0.74902993    -0.15548952
O      -1.94178042     4.03872976    -3.93516921     0.01484299     0.62876746    -0.10660374
O      -9.67461991     4.58065895    -4.03267187    -1.68864985    -0.19198764     0.03486321
O      -5.86580854     4.71546651    -3.97863045     0.11786081     0.41623908    -0.25026178
O      -5.81499561     4.39535021    -8.00182881    -0.97431218     0.08493678     0.18614821
O      -1.84837050     0.15321387    -4.07963831    -0.63674526     0.18074545     0.54641926
O      -5.80853926     8.51063929    -8.00869211    -0.21258385    -0.07759790    -0.42619171
O      -9.81208335     8.25330160    -4.07812567     0.44485974     0.77576639    -0.12415330
O      -5.91510886     0.53257744    -8.09780490     0.11961807     0.06549789     0.63047161
