# total energy = -630.61463373 eV

CRYSTAL
PRIMVEC
        0.00279571     0.02951795    -7.98606283
       -7.83802570     0.01298533    -3.99532603
       -3.92160916     8.71933433     0.00634407
PRIMCOORD
56 1
Li     -4.03302963     2.54753796    -1.95222165     0.27346808    -0.87800408     0.17448376
Li     -3.94392552     2.23045626    -6.01741941     0.22388948    -0.09970147     0.24885454
Li     -7.90843130     2.22015277   -10.05960286     0.64021013     0.55359263     0.17166460
Li     -7.94215534     2.07342129    -6.03345630     0.76980649    -0.22092453     1.07025747
Li     -3.95926256     6.69675754    -1.81264014     0.35310618    -0.11211045    -1.10351127
Li     -3.98511494     6.64269354    -5.95285392     0.50086631     0.03981274     0.35587565
Li     -7.80343958     6.36177689    -9.99705859    -0.61589667     0.02360500    -0.02377190
Li     -7.77028660     6.64527934    -5.87889979    -0.51580602    -0.15405717     0.28656042
Ti     -1.93192319     2.28494414    -3.99292193    -0.92108608    -0.43576085    -0.09353688
Ti     -5.91036067     6.73733851    -7.92927082    -0.34257874    -0.04601025     0.14228842
Ti     -7.75320650     4.43359121    -7.64447707     0.20355342    -0.14161792     0.46582877
Ti     -7.80958689     4.31916897    -3.77197308    -0.41769666    -0.42708337    -0.70658937
Ti     -3.84228204     4.46560597    -7.65124297     0.46392405    -0.92378809    -1.19739733
Ti     -4.00991819     4.50120132    -3.82581007    -0.32305183     0.11982855     0.30983354
Ti     -6.21494460     8.65010110    -2.02896555     0.14864902     1.91355502    -1.38726063
Ni     -5.82349918     2.22166178    -7.92625576    -0.39725014    -0.49081141     1.36768522
Ni     -5.74019276     2.23536848    -4.08120203    -1.49211355    -0.22247093    -0.46085053
Ni     -9.80960757     6.30913732    -7.98849330     0.61735723     0.83209808    -0.59025910
Ni     -9.86065484     6.48956019    -3.95302849     1.20135579     0.16541787    -1.53388037
Ni     -2.07140253     2.07013675    -8.03796735     1.71905660     0.83764570     0.00802618
Ni     -5.85752611     6.57524357    -4.07273240    -0.58616901     0.47946485     0.67754166
Ni     -1.96037667     0.13748816    -5.87846682    -0.20338686     0.61428706    -0.35022219
Mo     -6.06330854     0.10670956   -10.28087716     1.58773729    -0.99229686    -0.19367062
Mo     -9.72893664     8.65893180    -6.41598672    -0.88192840     0.37440303     0.60918428
O      -1.95876492     1.90538333    -2.11868324    -0.41160533     0.47204541     1.67869894
O      -1.87018686     1.98246054    -6.03847833    -0.99698904    -0.61879706     0.49222185
O      -5.96386649     6.81140061    -2.08047735     0.96086855    -1.00117731     0.55276396
O      -5.84167199     7.05934025    -5.92470525    -0.30663687    -1.15283801    -0.35913010
O      -5.95803342     1.88803893    -9.71352626     0.76773805    -0.07996038    -0.51980942
O      -5.95160365     1.92180319    -6.04199457     1.33316653    -0.26346223    -0.69649412
O      -9.84675566     6.81474171   -10.16272937    -0.10790587     0.35042408     0.83046141
O      -9.81634064     6.67520759    -5.83116783     0.24714970     1.42801054    -0.48524677
O      -3.86755812     2.47846821    -4.02043913     0.41535308    -0.19765642     0.00185858
O      -3.92050273     2.35637946    -7.94813697    -1.41679156     1.17045483    -0.18604652
O      -7.65398351     2.36938553    -3.96108956    -0.54537936    -0.40557016    -0.69590645
O      -7.80557485     2.45029381    -7.84283413     0.32290539     0.63487557    -0.94919418
O      -3.87818047     6.46441292    -3.99307341    -0.86526760    -1.30738018    -0.06440215
O      -3.93476600     6.41079652    -7.97252308     0.17975183     0.01033167     0.61282267
O      -7.88825540     6.31724690    -3.98423680     0.41788218    -0.29025373     0.40681048
O      -7.82022622     6.46457215    -7.92647962     0.04300105    -0.87328570    -0.19320991
O      -3.96746249     4.31488560    -2.07955079    -0.14117321     0.76608856     0.56405111
O      -3.78663705     4.31015098    -5.92189677    -0.29249088     0.36269365    -0.24739589
O      -7.77670880     4.31684811   -10.01226614     0.23527626     0.60789183     1.14321077
O      -7.77307366     4.53596944    -5.89586182    -0.21257670    -0.21811764    -1.52765963
O      -7.96645744     8.71345949    -9.89599277    -1.26477998     0.24560471    -0.45696970
O      -4.00668002     0.04940035    -5.98414148    -0.08647468     0.08002857    -0.64848455
O      -7.58220158     0.03894237    -6.10268432    -0.22446979    -0.51376090     0.10348234
O      -7.80796689     0.08227047   -10.05790704    -0.78539942    -0.14715074    -0.11481139
O      -9.72940563     4.37106951    -8.03692905    -0.15113177     0.13498387     0.37939079
O      -1.95836206     4.08739640    -8.04395199    -0.26977646    -0.27903023     0.08073131
O      -5.86732002     4.07354684    -4.20636173     0.53384133     0.80602501     0.53387284
O      -5.83109405     4.80418929    -7.87084648    -0.02544627    -0.28572177    -0.20804247
O      -2.11607106     0.36656376    -3.92402729     0.74033768    -0.16699920    -1.05061254
O      -5.86053966     8.70033129    -8.13190399     0.23867158    -0.42383414     0.81797679
O      -5.77389235     0.23257682    -4.09276720    -0.29885092     0.35724480     1.27889531
O      -9.81361812     8.18299353    -8.19101614     0.13683393    -0.24413529     0.61132847
