# total energy = -630.95031171 eV

CRYSTAL
PRIMVEC
        0.00285542     0.02004370    -7.95977623
       -7.82940539     0.00763210    -3.98158109
       -3.91729101     8.74642787     0.01461334
PRIMCOORD
56 1
Li     -3.91465503     2.33378196    -1.89629191    -0.06020258    -0.30656439    -0.21397157
Li     -3.98075347     1.94034998    -6.00798107     0.15455011     0.11460003     0.17342114
Li     -7.89664955     2.29378401    -9.94516704     0.39338757     0.09165883    -0.10024580
Li     -7.79735210     2.04550286    -5.87776547     0.31121727     0.23815009    -0.17225255
Li     -3.93394891     6.19928038    -1.98506355     0.22518501    -0.06006770     0.30114341
Li     -3.86470426     6.42745282    -5.74177437    -0.16012891     0.01811267    -0.38547157
Li     -7.87162311     6.39450153   -10.06099461    -0.05153851     0.04681909     1.30036499
Li     -7.89236105     6.63733413    -5.84233123     0.51015087    -0.16062273    -0.03453429
Ti     -2.05387387     2.29825527    -4.01604448     0.34851945    -0.00104212     0.53441284
Ti     -5.82289192     6.69021367    -7.91288019     0.17483923     0.46988849     0.10839682
Ti     -7.70071327     4.35017168    -7.71852863    -1.10641225    -0.08295395     0.99956870
Ti     -7.85323920     4.42923874    -3.78724876     0.39593056    -0.67039131    -0.28782100
Ti     -3.72151722     4.26754969    -7.63910433    -1.44969050     0.61390033     1.06565399
Ti     -4.15518455     4.37739610    -3.89047165     0.90626722    -0.33256231     1.41217704
Ti     -6.14212613     8.71027626    -1.99996786     1.00305290     0.49471143    -0.55401128
Ni     -5.86186135     2.45808138    -8.02735687    -0.08163486    -1.05815668     0.32101487
Ni     -5.92439880     2.15918905    -4.04070534     0.26742757    -0.42690426     0.21310168
Ni     -9.79099300     6.54663245    -7.92198500     0.11787734    -0.12594595     2.30828780
Ni     -9.86567169     6.52129609    -3.96680558     0.28011456     0.54347011    -0.45246393
Ni     -1.88306991     2.09222848    -7.94441085     0.07851034     0.01034717    -0.38776065
Ni     -5.87287514     6.73655893    -3.98820647     0.06968406     0.12643961     0.23249160
Ni     -5.86652319     8.75319873    -6.02631948     0.41699821    -1.07501574     0.49680655
Mo     -5.99224216     0.06599716   -10.15253911    -1.90021536     0.47396544    -1.33900182
Mo     -9.78483811     8.65825919    -6.36446543     0.72396168    -0.04378930    -1.06051903
O      -1.80477464     1.94706628    -1.96071547    -1.32744419    -1.23354853    -0.44981622
O      -1.92950704     1.78231725    -6.07229313    -0.53617195     1.07594715     0.85250173
O      -5.80629710     6.76929785    -1.92745960    -0.84277272     0.97665831    -0.73995524
O      -5.71214942     6.86062566    -5.95088539    -1.12567208     0.45961503     0.00142952
O      -5.88768402     2.05839068   -10.15081684    -0.18029509    -0.81200591     0.75721983
O      -5.87041362     1.90678959    -5.88031868     0.46501605     0.50016638    -0.27824090
O      -9.90151465     6.95520553    -9.63939722     1.14578113     0.38364575    -1.18221150
O      -9.74019814     6.75352037    -6.01160544    -0.31824968    -0.22197224    -0.27764471
O      -4.02955734     2.32878952    -3.96191324     1.31811929    -0.15739665    -0.80206052
O      -3.83541249     2.39697454    -7.92276705    -0.16270260     0.14428014    -0.01923815
O      -7.79488470     2.44753795    -3.96339772    -0.43534405     0.15773422    -0.17452578
O      -7.81229169     2.33677139    -7.92240605    -0.34999081     1.68264783    -0.47011310
O      -3.84551396     6.37984903    -3.83738694     0.43342951    -0.39084156    -0.56941410
O      -3.97689715     6.27553090    -8.01957910     0.92008311    -0.48110891     0.68387257
O      -7.99159325     6.43645574    -3.89646721     0.60069084    -0.40007979    -0.56186431
O      -7.74412693     6.41987595    -7.94855059    -0.64145288    -1.11247664     0.08138723
O      -3.90497448     4.14306056    -2.11942390     0.09905402     1.24534259    -0.03284186
O      -3.59395242     4.34234463    -5.80602879    -1.15602526     0.04962799    -1.90587218
O      -7.97307460     4.33493745    -9.98300238     0.29657464     0.39045713     0.65339838
O      -7.94422401     4.37653497    -5.95640711     0.05845795     0.21790265    -1.11405205
O      -3.99084568     0.14332020    -9.87313683    -0.28611359    -0.38411050     0.01981316
O      -7.99257865     8.72565550    -6.00006652     1.42949729    -0.08776092    -0.08447003
O      -7.45576900     0.02938992    -5.75022703    -2.40324661    -0.24202938    -0.03837481
O      -7.82389803     0.04304505   -10.03704085     1.58930276     0.34569897    -0.28606321
O      -2.01639748     4.10655988    -4.05316014     1.18945552    -0.67094012     0.50910714
O      -9.81147115     4.65687243    -3.94270447     1.06315877     0.19246090    -0.82802105
O      -5.94645780     4.83982266    -4.05081702    -0.84367613     0.51798601    -0.14448477
O      -5.79093564     4.37231476    -7.89605539    -0.15576510    -0.17988635    -0.02874026
O      -5.81807971     8.74962383    -3.91597450    -0.33652005    -0.04042227     0.47083555
O      -5.65121208     8.57330502    -8.01335905    -0.83698779    -0.51889234    -0.26175579
O      -9.64683444     8.45182019    -3.95877911    -0.52168694    -0.15283738     1.13262751
O      -5.95804435     0.59407651    -8.13971341     0.31122274     0.30809208     0.54867358
