# total energy = -630.60023528 eV

CRYSTAL
PRIMVEC
        0.00285542     0.02004370    -7.95977623
       -7.82940539     0.00763210    -3.98158109
       -3.91729101     8.74642787     0.01461334
PRIMCOORD
56 1
Li     -3.73610856     2.42135826    -1.98611153    -0.92698262    -0.23527650     0.58342938
Li     -3.96992964     2.24653089    -5.97583683    -0.14610782    -0.12991583    -0.32870618
Li     -7.64923925     2.40845177   -10.08754405    -0.75386294    -0.51794974     0.91312991
Li     -7.85282719     2.06645093    -5.97758376    -0.26581367     0.15407035     0.16250372
Li     -3.90617644     6.30601829    -1.94986158    -0.22933280     0.60007382     0.01472369
Li     -4.07003419     6.50705168    -5.80291543     1.29916084    -0.14839799    -0.28785446
Li     -7.81811187     6.54884604    -9.96548033     0.36209981    -0.56044677     0.11510231
Li     -7.90941794     6.48012713    -5.71157227     0.58247957     0.22022425    -1.07010581
Ti     -1.97187875     2.29753248    -4.02451534     1.46691042     0.83948376    -0.86926763
Ti     -5.81577582     6.81492924    -7.82897658     0.56623663     0.46293129    -0.55926037
Ti     -7.79123328     4.47216685    -7.60657773     0.61654205    -2.74800947    -0.86626137
Ti     -7.76407719     4.26630964    -3.78978162    -1.42083179     1.59374797     0.42529003
Ti     -3.89095495     4.38296551    -7.67556583     0.65027876    -0.40793441     0.09995975
Ti     -4.00604532     4.37385886    -3.74259306    -0.03542619     1.06270144    -0.92838579
Ti     -6.05686305     8.70655746    -2.19038456     0.77106189    -0.43564388     1.09361619
Ni     -5.92135904     2.39089689    -8.09148732     1.72537828     0.58880736     0.12659884
Ni     -5.87701636     2.23384045    -4.07819941    -0.13959568    -0.69022627     0.47644618
Ni     -9.66938021     6.43943865    -7.81163503    -1.85759091     0.24544874    -0.60532759
Ni     -9.68759979     6.41236872    -4.09172107    -1.16922358    -0.34789291     0.99402503
Ni     -1.91846868     2.31689781    -7.96981706    -0.62935372    -0.12524589     0.34869953
Ni     -5.90675350     6.60901819    -3.94729830     0.68732623    -0.29784434     0.60928152
Ni     -2.12373337     0.04694177    -5.89247467     1.13465591     0.28164097    -0.91022773
Mo     -9.80734019     8.65147120   -10.14608374    -1.11555112     1.59110552     0.04078016
Mo     -9.89839389     8.70344592    -6.32224362     1.11454656     0.46980958    -0.75078071
O      -1.92109558     1.94198447    -2.07091751     0.12694042    -0.26236610     0.45285916
O      -1.94114848     1.95593034    -6.05955956    -0.63591751    -1.21907019     0.81206909
O      -5.87573020     6.69824076    -1.97132146    -0.19440659     1.10892291     0.16776497
O      -5.80005203     6.88142080    -5.81208010    -1.93536062     0.59906123    -0.64147400
O      -5.83164281     1.96623151   -10.07737511     0.37714096     0.55812141    -0.12877920
O      -6.03840447     1.96124017    -5.99738385     1.14393423    -0.13098354     0.34437018
O      -9.59454888     6.90967772    -9.67967313    -0.51913397    -1.13228280     0.08275814
O      -9.80664030     6.77216435    -5.99632388     0.02713563    -0.02138521     0.76949852
O      -3.86453058     2.40125979    -3.91290175    -0.51696166    -0.11506901    -0.87482774
O      -3.81566779     2.46127424    -8.01851446    -0.54373096     0.28410031     0.18763190
O      -7.89217825     2.37448140    -3.98159717     0.70698224    -0.70750796    -0.65001795
O      -7.79472542     2.49028649    -8.01921701    -0.75019246    -0.02950150     0.26492901
O      -3.87338491     6.30113035    -4.00375603     0.35671976    -0.00693526     0.84558057
O      -3.93223780     6.41117976    -7.83896066     0.15501637    -0.15127887    -0.34419000
O      -7.80691336     6.37153080    -3.95791957     0.02077787    -0.38597188     0.53220505
O      -7.75940094     6.29292708    -7.84385702     0.48893079     1.78996754    -0.19569169
O      -3.86421138     4.45232476    -1.99807695    -0.03233619    -0.50810747     0.10607404
O      -3.97943433     4.30046418    -5.93660022     0.20325737     0.16240308     0.89445815
O      -8.02367062     4.25570475   -10.01667381     0.83453719     0.86241452     0.65671992
O      -7.97155440     4.40252155    -5.87106141    -0.11616231     0.07554689    -0.45874498
O      -7.86339410     8.72960788    -2.01151871     0.78039384    -0.03332793     0.26414972
O      -4.12909966     0.02925822    -6.13658322    -0.83281165    -0.38255824     0.67413585
O      -3.92749243     8.63816596    -2.13313890     1.16823598     0.18253629     0.04527090
O     -11.53529372     8.63082805    -9.93511161    -0.80806468     0.19200233     0.30080536
O      -1.94445003     4.24852609    -4.07355659    -0.16928230    -0.58287304     0.58260004
O      -9.81359376     4.49439231   -11.87946149     0.67130577     0.31051336    -0.97315709
O      -5.93356374     4.25042003    -4.06772425     1.81277528    -0.50634716     0.18016366
O      -5.75768594     4.35246619    -7.95568354    -2.94506844    -0.01901081    -0.24809597
O      -2.03855643     0.28487203    -3.98120007     0.06780419     0.08592960    -1.65498350
O      -5.84423455     8.62616662    -7.88699777    -0.18515817    -0.77838766    -0.01683212
O      -5.85836432     0.12549754    -4.00354117     0.02635793     0.49924333    -0.93566459
O      -5.79400300     0.58924159    -8.10461923    -0.83863643    -0.59871538     0.13791280
