# total energy = -630.25918037 eV

CRYSTAL
PRIMVEC
        0.00285542     0.02004370    -7.95977623
       -7.82940539     0.00763210    -3.98158109
       -3.91729101     8.74642787     0.01461334
PRIMCOORD
56 1
Li     -3.98591890     2.31370032    -1.97811305     0.34041369     0.02690959     0.12818058
Li     -3.98646330     2.09567774    -5.92080900     0.15070377     0.24807143    -0.57428065
Li     -7.72661491     2.45910258   -10.11927728    -0.28942509    -1.05114649     1.04793107
Li     -7.75612143     1.85557914    -5.80838677    -0.02583842     0.44556149    -0.19793425
Li     -3.91490887     6.64199951    -1.97564191     0.19729061    -0.34525628     0.18190925
Li     -4.10458001     6.58025940    -5.85599891     0.85873114    -0.23938669    -0.18169287
Li     -7.83889412     6.54227157    -9.84124105    -0.20485344    -0.14565488    -1.05082606
Li     -7.81897259     6.69896290    -5.84082411     0.01079117    -0.50344458     0.30416557
Ti     -1.90358764     2.04682388    -4.09362817    -0.54820399     1.28351745    -0.66500157
Ti     -5.94398201     6.46891176    -7.97115973     0.83006523     0.48002550     0.08582462
Ti     -7.99350861     4.28306865    -7.72445353     1.17592094     0.11447299     0.54758185
Ti     -7.91171873     4.36396104    -3.69439014    -0.00099690     1.03860370    -0.95790790
Ti     -3.82287664     4.36923678    -7.72386999     0.06573771    -0.32979112     1.35799868
Ti     -3.98568776     4.39985796    -3.71198122     0.73630587    -0.34387887     0.22799555
Ti     -2.15656613     0.02140338    -2.03478349     0.00628125    -0.87228898     0.68657973
Ni     -5.89181526     2.48104117    -7.98033275     0.59260172    -0.77322689    -0.05428380
Ni     -5.86841202     2.45948143    -4.05895976    -0.20058944    -0.90826868     0.67279859
Ni     -9.79947241     6.56604643    -7.88953603     0.43165539    -0.27769138     0.82281146
Ni     -9.86580080     6.56854343    -3.93773832     1.27287887    -0.95449443    -0.51591857
Ni     -1.93894026     2.12318995    -7.96564225     0.73282785    -0.07188074    -0.05352212
Ni     -5.83927578     6.55404579    -3.93969957    -0.01638436    -0.24457385    -0.16493527
Ni     -5.90449344     8.72738729    -6.03618383    -0.00250821     0.09727227     0.10980021
Mo     -5.90265585     0.07081772   -10.08958112    -3.17671478     0.39132447     0.27077059
Mo     -9.73697386     8.68984101    -6.41363371     1.57987197     0.43230947     0.62360410
O      -1.76586582     1.85869488    -1.92643763    -0.95839629     0.15852670    -0.37059870
O      -1.97480167     1.86551740    -6.07448899     0.11082991    -0.25019922    -0.02962627
O      -5.89443022     6.77831171    -2.06420135     0.68182104     0.31009509     0.68900251
O      -5.94384420     6.84546149    -5.91665146     0.19710287     0.54836238    -0.61251237
O      -5.87515739     2.04022553   -10.14404069     0.63374747     0.04467477     0.07309137
O      -5.91833093     1.94414567    -5.78850415     0.64426744    -0.67589343    -1.83743519
O      -9.74721951     6.93807684    -9.64714651    -0.24185948     0.15107103    -0.92930032
O      -9.72475233     6.81037121    -5.98449244     0.31886987    -0.15629601    -0.12610611
O      -3.96445923     2.35829994    -4.08428587     0.70381192     1.07035332     1.28541117
O      -3.78657289     2.48437921    -8.01238848    -0.89310870    -0.27427101     0.22049722
O      -7.79057268     2.39039081    -4.00453922    -0.37113370     0.97207403     0.30303184
O      -7.83153038     2.27831465    -8.03755978    -0.27793035     0.71591600     0.44296938
O      -3.84886175     6.36633708    -3.97551961    -0.23237891    -0.18311489     0.52926617
O      -3.96351241     6.30371242    -7.90294863    -0.89854697     0.94597584    -0.28478028
O      -7.65378755     6.40392583    -3.84649695    -2.00141771    -0.64012939    -0.37579959
O      -7.82470097     6.22816276    -8.08727384    -0.71921546     0.84937843     1.59034822
O      -3.74706132     4.36949151    -1.93248199    -0.94848634     0.01987102    -1.66889797
O      -3.94076464     4.40812703    -5.93365928     0.40521682     0.00788501    -0.81446055
O      -7.87914296     4.30169599    -9.88433188    -0.04162553     0.21132475    -1.06324520
O      -7.86481087     4.40117627    -6.00728812     0.33586186     0.13233190     0.88377825
O      -3.94695064     0.10698567    -9.89057124    -0.07681689     0.13540571    -0.45477948
O      -3.98876425     0.07252047    -6.12812188    -0.55859788    -0.63104074     0.51502974
O     -11.44023324     8.59628560    -5.94551384    -1.88783351     0.81129997    -0.14865558
O      -7.73860625     0.12138376    -9.86006330     0.94756183    -0.55524062    -0.39169288
O      -1.96276525     4.13843127    -3.99664874    -1.89684004    -0.85862773    -0.34175802
O      -9.74960893     4.66638076    -4.15651340    -0.33065224     0.64659510     1.20228016
O      -5.91843603     4.53140023    -3.93715501     0.54588431    -0.41583983    -0.14186917
O      -5.95817339     4.33765189    -7.95283979     1.42202320     0.91578463    -0.29582827
O      -2.06663451     0.22966796    -4.02795476     0.37230096    -0.90237378     0.68031212
O      -5.98503011     8.39013176    -8.03331737     0.64954672    -0.63885886     0.05285334
O      -9.81764803     8.44890388    -3.82429482     0.38285572    -0.12053315    -1.93413490
O      -5.69132581     0.64467578    -8.12754799    -0.76383977     0.22127682     0.77657479
