# total energy = -631.13109592 eV

CRYSTAL
PRIMVEC
        0.00279571     0.02951795    -7.98606283
       -7.83802570     0.01298533    -3.99532603
       -3.92160916     8.71933433     0.00634407
PRIMCOORD
56 1
Li     -3.85090290     2.29933225    -1.97345188    -0.16989582    -0.15776093    -0.13138670
Li     -3.99046632     2.09925204    -6.01790864     0.46404693     0.12010217    -0.27132196
Li     -7.88024892     2.42252905    -9.99368697     0.26210493    -0.03232768    -0.42109500
Li     -7.76025306     2.27225936    -5.98831622    -0.28048653     0.21289982     0.28513076
Li     -4.03155443     6.46087897    -1.97671401     0.76151607    -0.22849931     0.04162136
Li     -3.75070243     6.25319535    -5.89236609    -0.58834490     0.19861307    -0.08607561
Li     -7.87483400     6.37615466    -9.92276858    -0.21804284     0.44711457    -0.03558885
Li     -7.88525375     6.69036675    -5.85057186     0.36509757    -0.47139875    -0.23086860
Ti     -1.90950790     2.02028578    -4.11339560    -1.85890087    -0.05506271    -0.02410729
Ti     -5.92779337     6.45015493    -7.93047005     0.78418629    -0.02899347     0.29916468
Ti     -7.96491062     4.40482258    -7.75863809    -0.97766241     1.24129735     1.80589271
Ti     -7.71829629     4.46667334    -3.77248165    -1.19546928    -0.35429411     0.26955424
Ti     -3.78719110     4.32479911    -7.73992809     0.69737183    -0.33943693     0.07410542
Ti     -3.95769980     4.27447150    -3.85090299    -0.24933548     0.21053979     0.18975156
Ti     -6.03075366     8.70709926    -1.87626415    -0.59999402     0.57079595    -0.01433896
Ni     -5.93307037     2.41046807    -8.06412230     1.10736477     0.00029549    -0.11893476
Ni     -5.90214238     2.17077149    -4.02243696     0.41780383    -0.20929423     0.21572533
Ni     -9.93307981     6.80967310    -7.87225030     0.87299603    -0.89538491    -0.17226708
Ni     -9.74263576     6.48193738    -4.05932175    -0.45369745     0.11826606     0.25874856
Ni     -1.89069437     2.06187152    -8.02171103    -0.09322663     0.47394653     0.03159404
Ni     -5.79874695     6.61734920    -3.92736867    -0.74086178    -0.17841041    -0.79785847
Ni     -5.98197855     8.58239393    -5.94370770     1.07565861     1.87768985    -1.02384698
Mo     -5.99831829     0.13343961   -10.26750038    -0.36158549     0.05957235    -1.08283210
Mo     -9.82526965     8.72536592    -6.29256137    -0.49525273    -1.07836046    -0.49008521
O      -1.89222970     1.89490983    -2.04334914     0.54695203     0.33718935     0.51040375
O      -2.00265057     1.84160194    -6.11031076     0.22633544    -0.62758313     0.50908650
O      -5.87565237     6.82208298    -1.99619684    -0.43648143    -1.03463152     0.30274474
O      -5.75924175     6.78309031    -5.89846460    -0.81601925     0.16095257    -0.23885865
O      -5.82301647     2.03755812   -10.11070733    -0.31338683     0.47659850     0.06799403
O      -5.85480486     1.92583505    -5.89815146    -0.88023910     0.05678159     0.06162233
O      -9.88016624     7.01095933    -9.75860052     0.97623603    -0.11152813     0.26558945
O      -9.77672707     6.66676204    -6.03154226    -0.54570124     1.47215856     0.08303148
O      -3.93081316     2.25697853    -4.11099332    -0.03364717     0.83921568     0.79790046
O      -3.84961899     2.41339557    -8.05119178    -0.16539901     0.20322347     0.16142176
O      -7.82321156     2.48623429    -4.01548368     0.08081562    -0.15004669    -0.00556349
O      -7.90119049     2.49738029    -8.03080847     0.76777950    -0.64745800     0.02256093
O      -3.94033180     6.40695591    -3.96304457     0.72427505    -0.72230407     0.00224154
O      -3.88376830     6.27679749    -7.94699117    -0.64394846    -0.18080758    -0.29298161
O      -7.80088439     6.47850907    -3.96486942    -0.25496387    -0.85728276     0.41290441
O      -7.90492918     6.44793411    -7.91343397     0.57851694    -0.61112131    -0.54028793
O      -4.07416984     4.30036027    -2.11522294     0.14271778     0.00206678     0.97951287
O      -3.79700321     4.28466283    -5.97746167    -0.65877301     0.18792201    -0.22169542
O      -7.66082622     4.43361578    -9.94808073    -0.47716456     0.19979904    -0.23408382
O      -7.75641218     4.53891997    -5.97543986    -0.42153036    -0.71500216    -1.56596731
O      -3.89827404     0.16787590    -2.15144745    -0.36862666    -0.74387718     0.85717433
O      -7.97886655     8.69141630    -6.06300479    -0.39338464    -0.34724553    -0.06081161
O     -11.66393888     8.56785729    -6.20796221     0.74980422     0.82538111     0.73705781
O      -7.73592633     0.19712821   -10.07476456     0.00786487     0.04393291     0.10634968
O      -2.07509582     4.17632091    -3.92784536     1.86818554    -0.73701629    -0.52927893
O      -9.71775054     4.66611888   -11.87166924    -0.05529696     0.06784910    -0.72739428
O      -5.90438093     4.69330554    -4.09585245     1.31353367    -0.07345451    -0.20806259
O      -5.90125697     4.41338465    -7.94791022     0.35408432     0.22108267    -0.07182297
O      -1.92542553     0.14240480    -4.04251803     0.18487150    -0.10153963     0.19660494
O      -5.75361805     8.31775140    -7.93154309    -0.71996065     0.64117323    -0.32084751
O      -9.84652210     8.34511641    -4.07116443     0.19510689     0.10851406     0.23459804
O      -5.90494517     0.58105173    -8.11508824     0.21926335     0.06319100     0.27070562
