# total energy = -630.36294386 eV

CRYSTAL
PRIMVEC
        0.00285542     0.02004370    -7.95977623
       -7.82940539     0.00763210    -3.98158109
       -3.91729101     8.74642787     0.01461334
PRIMCOORD
56 1
Li     -4.02756721     2.06374346    -1.99069984     0.54125958     0.20614869     0.46843689
Li     -3.82448080     2.25544471    -5.93064182    -0.48764565     0.29866621    -0.47382381
Li     -7.77301926     2.50007771    -9.95684835    -0.33745708    -0.25069905     0.23932518
Li     -7.74866329     2.30791674    -5.92049617    -0.22061153     0.05494198    -0.22586773
Li     -3.86678289     6.65191316    -1.94770723    -0.01281297    -0.50386565    -0.01118345
Li     -3.97941640     6.56121200    -5.98477708     0.34131191    -0.07223784     0.50552701
Li     -8.08028155     6.70589540    -9.93625625     0.79871793    -0.12567367    -0.00557585
Li     -7.83701930     6.33774365    -5.89563734    -0.15784448     0.27479199    -0.22695910
Ti     -2.10425365     2.05649534    -4.04025942    -0.34685234    -0.09101315     1.15250554
Ti     -5.89313848     6.60499535    -7.96153339    -1.64657269     0.13056176    -0.10215273
Ti     -7.93534288     4.30188852    -7.78144197    -0.70143204     1.31929475     0.16237357
Ti     -7.93674102     4.42437306    -3.80007280     0.12659371     0.83895450     0.54372846
Ti     -3.90900795     4.30113195    -7.82885725    -0.24827772    -0.42915674     0.90364430
Ti     -4.07959852     4.43984415    -3.80826101    -0.02420257     0.26032752     0.51253552
Ti     -5.47825890     8.69245692    -1.97008999    -1.31961780     0.85475708     0.12393986
Ni     -5.85004571     2.42301869    -7.88356883     0.66882383    -1.32013989    -1.05617892
Ni     -6.02833798     1.99782396    -4.01141789     1.36159514     0.00940364     0.46267092
Ni     -9.85863015     6.72314151    -7.82324919     0.63139869    -0.19936779    -1.83697773
Ni     -9.90993948     6.47307409    -3.99282224     0.90538186     1.96059498     0.15668844
Ni     -1.86893507     2.07123744    -7.86346050    -1.06848206    -0.27529973    -1.21364383
Ni     -5.89082217     6.71597113    -4.00764965    -1.01340054    -0.24507773     0.31553810
Ni     -5.87766875     8.70538668    -5.98933646     0.87671346    -0.23059116     0.22604532
Mo     -5.93604801     0.16372578   -10.24020744     1.27517232    -0.99752905    -0.43295558
Mo     -9.52540225     8.73722994    -6.22475422    -1.92529738    -0.50954335    -0.87812523
O      -1.88549509     1.78429955    -1.96894151    -0.24077290     1.02365062     0.15177216
O      -1.84568563     1.87524022    -5.97114996    -0.44722096    -0.60947819    -0.46869176
O      -5.94176654     6.87375156    -2.02595196     0.33272201    -1.11074569     0.23586288
O      -6.00135173     6.80494695    -5.88732969     0.89254082     1.21430127    -1.34805691
O      -6.01165527     2.08567516   -10.07696607     0.83671037     0.16584263     0.14557804
O      -5.79670343     1.86659875    -5.85442591    -0.84753021     0.79505445     0.61551876
O      -9.90229575     6.95126036    -9.76474271    -0.22224487    -0.23082851     0.33393233
O      -9.78573768     6.85928976    -5.99747124     0.19866531    -0.63412646     0.50196686
O      -3.97855251     1.99253376    -3.96537973    -0.01320603     1.90026186    -0.34742158
O      -3.91863975     2.33392074    -7.94709733     0.46503141     1.16077170     0.17281297
O      -7.89500097     2.41933556    -4.06500317     0.63953166     0.86930079     0.67748554
O      -7.67962075     2.42716003    -7.90251313    -1.34376742     0.20858177    -0.08074635
O      -3.86730232     6.36197132    -3.95991018    -0.17685074    -0.08723205     0.48850831
O      -4.02261581     6.41363615    -7.91682815     0.06185045    -0.79509117    -0.49041997
O      -7.97351455     6.43726729    -4.04498633    -0.12470828    -0.66945585     0.87638764
O      -7.96571991     6.42213618    -7.98917988     0.81339858    -0.62190206     0.54184024
O      -3.74310810     4.23978842    -2.05494518    -1.16322185     0.13867322    -0.93357586
O      -3.88682240     4.34492161    -6.03144293     0.33219200    -0.49645252     0.28459495
O      -7.73782707     4.51189116    -9.96026173    -0.69268101    -0.41422924    -0.93991724
O      -7.92071664     4.52929994    -6.02202234     0.34054100    -0.95101211    -0.25664488
O      -4.14576183     0.09637914    -9.83769668    -0.77658966     0.04193589    -0.36039987
O      -3.91258324     0.05664032    -6.07583270     1.49872910    -0.25936033     0.02428156
O     -11.55179995     8.66655254    -5.72127212    -0.15806225     0.17041452    -1.19854758
O      -7.72893759     0.08373828   -10.11874679    -1.74649487    -0.33618181     0.68116797
O      -2.04551951     3.95010544    -3.95134158     0.34313302    -0.29253181    -0.86812851
O      -9.87875451     4.66959771    -4.09801921     1.14900450    -0.55973189     0.41990212
O      -5.96372021     4.81677972    -4.17650937     0.54666182    -0.27690230     0.80195832
O      -5.87840137     4.39059407    -7.99439971     0.00001428     0.22060923     0.01572952
O      -2.02405259     0.10254318    -3.99069167     0.96574871    -1.02101922     0.52010580
O      -5.90174255     8.46063092    -7.97839339     0.05361343    -0.10914383    -0.10082778
O      -9.77800361     8.39291239    -4.05266488     0.40794654    -0.19149962     0.05005847
O      -5.94945027     0.50447429    -7.98206179    -0.07207137     0.69986819     0.51414151
