# total energy = -630.61132400 eV

CRYSTAL
PRIMVEC
        0.00285542     0.02004370    -7.95977623
       -7.82940539     0.00763210    -3.98158109
       -3.91729101     8.74642787     0.01461334
PRIMCOORD
56 1
Li     -3.91470517     2.31639345    -2.00576637     0.20164324     0.16867647     0.50485625
Li     -4.00881846     2.37979653    -5.89283397     0.05251688    -0.11144212    -0.33748435
Li     -7.65336572     2.26187238   -10.13405119    -0.81450691     0.06510793     1.28318781
Li     -7.87662327     2.36936730    -5.81929773     0.18265115    -0.25077773    -0.53879503
Li     -3.88548152     6.45709316    -1.99040552    -0.05037814     0.29033498     0.55812693
Li     -3.80026717     6.47340730    -5.96682876    -0.56224908     0.11370870     0.46728980
Li     -7.82895829     6.41842498    -9.93116364    -0.10200304     0.34824331     0.24320038
Li     -7.91679270     6.46359242    -5.93040659     0.28189809     0.05265986     0.51056048
Ti     -1.97877028     2.25332450    -4.08266744     0.47703945    -0.75049022     0.22971966
Ti     -5.91496218     6.57712828    -7.87337683     1.33599472     0.65046229    -1.02223154
Ti     -7.86896153     4.36916933    -7.69240465    -0.04970919     0.28320744    -0.05413049
Ti     -7.82532611     4.35174681    -3.67478457     0.33723630     1.01044574    -0.15536492
Ti     -3.81759331     4.38273045    -7.73130589     0.05384986     0.12407549     0.24668491
Ti     -3.99532788     4.50696183    -3.80866496     0.38386512    -0.32974677     0.76967186
Ti     -6.14946741     8.68339649    -2.08102559    -0.41108068    -0.22778488     0.16618918
Ni     -5.81812975     2.44963018    -7.99484479     0.10288176     0.47000802     0.10364464
Ni     -5.80022268     2.01012098    -3.99261207    -0.54278046     0.52501225    -0.88285560
Ni     -9.87084116     6.58642348    -7.85258227     0.47041173     0.04874584    -0.49484003
Ni     -9.72412957     6.47844882    -3.90379808    -0.60747741    -0.31688563    -1.10119318
Ni     -1.83911478     2.11345612    -7.89055477    -1.65958636    -0.25204280    -1.03756066
Ni     -5.86809768     6.55746687    -4.01158428    -1.12946484     0.32479572     0.52319348
Ni     -5.97779180     8.72931162    -5.98766594     0.58598211     1.95085226     0.32700355
Mo     -6.05392095     0.03194286   -10.19809982     0.84105429    -0.77736618    -0.17446541
Mo     -9.71240212     8.74865587    -6.41327218    -0.72793702    -1.09305603     1.06805958
O      -1.99988176     1.85183656    -1.92140124     0.58443779     0.32147394    -0.00991028
O      -1.92442601     1.87743392    -6.04044766    -0.28176493    -0.18185614     0.94253579
O      -5.91370771     6.75959629    -1.88673608     0.63927320     0.36936418    -0.73413605
O      -5.86033915     6.98021849    -5.94898817    -0.54785558    -1.62631157     0.39963234
O      -5.83572028     1.95368408   -10.10175384     0.43429112     0.52046119     0.22626886
O      -5.91259165     1.98442481    -5.85471786     0.90217059    -0.25856791    -0.27803524
O      -9.78060861     6.93991074    -9.70645131    -0.29932650    -0.22229290     0.09225614
O      -9.75901716     6.69940763    -6.04187040    -0.01800216     1.43674479     0.47393581
O      -3.83907715     2.40043828    -3.93707557    -0.87361423     0.09643137    -0.61819311
O      -3.86394967     2.44244409    -7.87432464    -0.15999881     0.49959704    -0.35786874
O      -7.85682502     2.41947942    -3.98250006     0.87280176    -0.25938013     0.34036468
O      -7.80865840     2.48170381    -7.98477975     0.22068195    -0.48379192     0.01693348
O      -4.02472683     6.48200492    -3.95981930     1.47190585    -0.52613354     0.01039499
O      -3.89706212     6.32995008    -7.84548574     0.25422351     0.98926275    -0.90973627
O      -7.81932542     6.34759921    -3.89171940     0.22185555    -0.56483350    -0.51882069
O      -7.79360640     6.27688242    -7.95759780    -1.06031341     1.03112129     0.57436534
O      -3.80115999     4.51548134    -2.04952928    -0.30604545    -0.34232519     0.26989638
O      -3.92547763     4.59583572    -5.96683700     0.36350744    -1.07667259     0.59157558
O      -7.74089982     4.50117699    -9.87005554    -0.60543228    -0.87811629    -0.67418546
O      -8.01744902     4.47547758    -5.94674096     0.91433195    -0.39123862    -0.09094339
O      -7.93800458     8.59768494    -2.21933762    -0.08673437     0.72591715     0.99592861
O      -7.92796298     8.70605238    -6.00870325     0.10612796     0.00716731     0.03748624
O     -11.42340879     8.66939697    -5.99164780    -0.86189822     0.08460663    -0.37436968
O     -11.73692606     8.76793236    -9.97724640     0.23473701     0.28316589    -0.13321235
O      -2.02778037     4.20822693    -4.00391425     1.35300684    -1.03594459    -0.63878253
O      -9.76843708     4.48396865    -4.02720293     0.92245409     0.73271236     0.60595601
O      -5.83215180     4.38744766    -3.89826655    -1.77245559     0.03516403    -0.86649800
O      -5.78006886     4.54359586    -7.94290127    -1.38134093    -1.24807267     0.03545504
O      -2.01826214     0.17398659    -3.94834261     0.72905177     0.75442465    -1.02642167
O      -5.98444334     8.50891497    -8.00021748     0.31379813    -0.32658868     0.40562034
O      -9.78624327     8.54546030    -4.01168655    -0.21832620    -0.23951824     0.01105496
O      -5.73328818     0.63636108    -8.16625196    -0.36705117    -0.39795906    -0.04211986
