# total energy = -630.54788550 eV

CRYSTAL
PRIMVEC
        0.00279571     0.02951795    -7.98606283
       -7.83802570     0.01298533    -3.99532603
       -3.92160916     8.71933433     0.00634407
PRIMCOORD
56 1
Li     -3.88036661     2.38096816    -1.83818352    -0.35060935    -0.33315541    -0.48846983
Li     -4.16014796     2.31222300    -5.89241862     1.25765935    -0.00428984    -0.06113389
Li     -7.67460110     2.58905417    -9.87659531    -0.28528060    -0.49442960    -0.28416124
Li     -7.81701112     2.15475430    -5.83513577     0.24287133     0.16154891    -0.13371653
Li     -3.87639248     6.79065229    -2.20510925    -0.41281359    -0.37626380     0.53564096
Li     -3.88208511     6.41447533    -5.98722723    -0.00040218    -0.22624918    -0.31640209
Li     -7.75500911     6.53760754    -9.87257475    -0.68866016    -0.28125397    -0.74466056
Li     -7.84330475     6.70257834    -5.90249549     0.02282464     0.02298100     0.10067652
Ti     -1.96970935     2.23832418    -4.10822452     0.34714403    -0.98946281    -0.63935712
Ti     -5.87142385     6.61753596    -8.03551585     1.25154147    -0.53776496     0.42069374
Ti     -7.74128846     4.39114121    -7.55887762    -0.59927318    -0.46176932    -0.06626765
Ti     -7.83586176     4.46947517    -3.81484665    -0.15814142    -0.05512238    -0.15096259
Ti     -3.89245740     4.29751824    -7.78983536     0.81861817     0.90711081     1.32564538
Ti     -4.06673007     4.33600263    -3.71020131    -0.36211579     0.01098642    -0.38218060
Ti     -2.12851630     0.11983494    -1.87561386     0.19677753     0.58335044    -0.95251166
Ni     -5.77730228     2.30438047    -7.89401108    -1.46961333    -1.01148867    -0.29252284
Ni     -5.96893794     2.14298096    -3.87503808     0.19715932     0.35334741    -0.75456142
Ni     -9.88809199     6.26582179    -8.08114714     1.38217756     0.25761524     0.09159550
Ni     -9.80678655     6.52532593    -4.15381393     0.17087321     0.49487303     1.81448615
Ni     -1.94056731     2.27724584    -8.03386847    -0.13736714    -0.31730431     1.66718592
Ni     -5.83838775     6.67753651    -4.09433733    -0.43458506    -0.11614670     1.06240035
Ni     -5.82050369     8.71919612    -5.91066876     0.07936161     1.47468193    -0.76797639
Mo     -9.86622502     8.72835134   -10.18092066    -1.69806590     0.89006738    -0.60420186
Mo     -5.93307717     0.03029992    -6.44311170     0.28860547     1.12698752    -0.73974704
O      -1.88580615     2.10296466    -1.86944377    -0.53926241    -1.13421415    -1.08070903
O      -1.93667941     1.88690717    -6.05528050     0.03325515     0.31741754     0.90862241
O      -5.84990026     6.92203790    -2.16399454     0.05477072    -0.18931749     1.28494430
O      -5.80801432     6.87777270    -5.90552622    -0.39795189     0.30406205    -1.14855178
O      -5.88152172     1.93830790    -9.82814393     0.68698779    -0.33355992     0.17779724
O      -5.88403232     1.96692697    -6.05194053    -1.13519200    -0.28798147     0.45516825
O      -9.80359394     6.74764614   -10.14274137     0.34279939    -0.10912402    -0.86938731
O      -9.80465498     6.81914184    -5.92894980    -0.30797054    -0.15958438    -1.30311437
O      -3.84443171     2.35508970    -3.93238920    -0.23768344     0.20928493     0.03291848
O      -3.97589500     2.35810715    -7.93739655     1.57330984     0.62855253    -0.05227757
O      -7.91432677     2.47156418    -3.91099405     0.23372078    -0.43374351    -0.08413074
O      -7.63978694     2.46891067    -7.90124610    -1.84034196     0.39122573    -0.33611773
O      -3.93230727     6.22862623    -4.13929289    -0.25167331     0.15936374     1.10230720
O      -3.87098732     6.32616099    -8.06844031    -1.56652309     0.47458304     0.09386515
O      -7.76703163     6.43916242    -3.91418182    -0.13886241    -0.09231397    -0.88372724
O      -7.86021188     6.31320568    -7.85182709     0.43752634     0.34902034    -1.05088090
O      -4.25512501     4.31382537    -1.96851217     0.52641466    -0.01426706     0.00737918
O      -3.83381395     4.34605747    -5.97946153    -0.06628963    -0.28289346    -1.49571650
O      -7.70439030     4.42544456   -10.05919494    -0.26205688     0.53202222     1.24519400
O      -7.74411032     4.39624300    -5.83109680    -0.04876670     0.14184235    -0.86774622
O      -3.95520409     0.10390920    -9.97572441     0.11958268     0.01936738     0.04147891
O      -4.22704965     0.15354384    -6.06788243     1.69785580    -0.63868643     0.27052223
O      -7.72272123     0.09735170    -6.05283322    -0.70646075    -0.08612430    -0.09851506
O      -7.71742771     0.12303087   -10.03380294     0.52618508    -0.49620537     0.11965521
O      -1.96129624     4.31334773    -3.85468332     0.15926013    -0.10627272    -0.46423580
O      -9.85757359     4.61513927    -4.31694412     0.63981951    -0.49467673     1.10912376
O      -5.90004062     4.02791957    -4.17983811     0.00792399    -0.41462927     0.62582753
O      -5.86356126     4.60012196    -7.86680777     0.30165710     0.95000681    -0.26691267
O      -1.90329810     0.35052120    -4.00793068    -0.01282540     0.48243796     0.80023885
O      -5.89007465     8.51681691    -7.96945248     0.00692946    -0.65364253     0.06708104
O      -9.90783233     8.70373296    -4.05605196     0.67317787    -0.08867136     0.78766934
O      -9.80092768     8.08988889    -8.23283690    -0.22641876     0.18166144     1.30447398
