# total energy = -630.88760586 eV

CRYSTAL
PRIMVEC
        0.00279571     0.02951795    -7.98606283
       -7.83802570     0.01298533    -3.99532603
       -3.92160916     8.71933433     0.00634407
PRIMCOORD
56 1
Li     -3.82728426     2.40972401    -2.00121475    -0.42330703    -0.23312089     0.36731542
Li     -3.75422560     2.40215530    -5.96921690    -0.47114545     0.12275381    -0.36218202
Li     -7.73600818     2.42591880    -9.90738631     0.07038080    -0.76360246    -0.01120698
Li     -7.83612030     1.95386387    -5.96108343    -0.37729474     0.67210936     0.30554983
Li     -3.88318908     6.46874448    -1.88117443    -0.23535697    -0.11262752    -0.23469809
Li     -4.08323785     6.33546052    -5.92600469     1.04420980     0.30655884     0.40940197
Li     -8.02471308     6.49511700    -9.80725017     0.36817997    -0.12269323    -0.44653847
Li     -7.85452719     6.57203233    -5.99068300    -0.43951874    -0.27408122     0.83042033
Ti     -1.93115334     2.21433224    -4.06765581    -0.44549461     0.43636854     0.25392636
Ti     -5.95557356     6.82981649    -7.85822887    -0.12885925    -1.10818669    -0.78332316
Ti     -7.75486630     4.31663326    -7.72532527     0.32033856     1.10826043    -0.44487413
Ti     -7.91843712     4.26959326    -3.69143161     0.87049272     1.10691976     0.57834947
Ti     -3.85927111     4.51591310    -7.80054969    -0.41397248    -0.07451273     0.87759266
Ti     -4.09737441     4.40778027    -3.78932025     0.50860694     0.25623019     0.78561476
Ti     -5.74811368     8.62663479    -2.17461996    -0.09000292     0.89576413    -0.12724016
Ni     -5.78371067     2.18458086    -7.87698360    -0.53914844     0.06873542    -1.99931182
Ni     -5.89348006     2.20584456    -4.00179268     0.38101899    -0.72217789    -0.42596787
Ni     -9.87716442     6.39258892    -7.92794255     0.42440576     0.11034315    -0.75441428
Ni     -9.80809562     6.66432012    -3.91533226    -0.44222788     0.00084406    -0.03746041
Ni     -2.00590710     2.16289846    -8.00061986     0.43717295    -1.06727731    -0.53921704
Ni     -5.93889441     6.62716936    -3.96633413    -0.46876111    -0.07742306     0.50348766
Ni     -5.84842690     8.72047864    -5.92652641     0.58315156     1.46435146    -0.55845047
Mo     -5.95684033     0.05542105   -10.33948682    -1.20345444    -0.96286896     0.60472249
Mo     -5.80765433     0.09331164    -6.39835253     0.93020893    -1.41502351     0.65961335
O      -1.98852529     1.83496962    -1.95737502    -0.25512234     0.47128714    -0.62014455
O      -1.87126637     1.88522779    -6.06401213    -0.40486300    -0.09014436     0.97145641
O      -5.97787006     6.78815319    -1.92800146     0.20220811    -0.60794001    -0.77066783
O      -5.85794881     6.90068312    -5.86156834    -0.58955263    -0.16645767    -0.19126782
O      -5.81336167     1.91704221    -9.86895357    -0.20755155     0.75814431     0.91324562
O      -5.91598611     1.96908103    -6.07947639     0.63042516    -0.07602751     0.92512626
O      -9.91256040     6.79743192   -10.01264163    -0.07250420    -0.22088772    -0.57545385
O      -9.89510872     6.94188082    -5.75968535     0.61711307     0.01864028    -0.51703394
O      -3.86469214     2.40101528    -4.03995596     0.04120411     0.10445946     0.24821507
O      -3.98344056     2.51966793    -8.01107805     0.19200361    -0.42491759     0.67268223
O      -7.74300534     2.35351120    -4.03274453    -0.85382145     0.09311930     0.48017688
O      -7.81952884     2.33705129    -7.90192714     0.23369708     0.27577131    -0.48167252
O      -3.95586150     6.35073372    -3.92265459    -0.31304112    -0.92819020     0.00011021
O      -3.92159347     6.51696442    -7.89725232     0.41619023    -0.36527409    -0.15020477
O      -7.92381679     6.22285242    -3.99561260     0.45674007     0.10833866     0.20037211
O      -7.92242474     6.41450586    -7.87910674     0.41426763    -0.75338854    -0.01465312
O      -3.88148109     4.34843037    -1.95754018     0.13654812     0.41073991    -1.18178060
O      -3.70408593     4.38867980    -5.95704976    -0.42962133     0.11018908    -1.24057004
O      -7.76227992     4.35460486    -9.83395605     0.00235268    -0.04635906    -1.95852826
O      -7.81945406     4.31614713    -6.00903702     0.37162875     0.34585425     0.70102500
O      -8.14079097     8.60081340    -2.18710242     1.90753978    -0.04780340     0.27310500
O      -7.92393827     8.68320190    -6.22239300    -0.83437744     0.68240659     0.41487786
O      -7.83635842     0.05569549    -6.27040881     0.42598594    -0.30538538     0.57025924
O      -7.79210033     0.12586611   -10.04265121    -0.59891707    -0.46597056     0.21761715
O      -1.90839368     4.25978118    -4.02998772    -0.18498584    -0.19919763     0.41135699
O      -1.87439496     3.97833761    -0.11088643    -1.08557823     0.23865093     0.34865023
O      -5.89017353     4.01710626    -4.10032758    -0.38322854     1.02487102     0.38640819
O      -5.74263268     4.85127179    -7.93433037    -1.15758069    -0.65161188     0.27133559
O      -2.08904605     0.24198379    -4.03354614     0.04167006     0.54069544     0.29129842
O      -5.99118010     8.65601016    -8.14368273     0.33686564     0.69000320     0.59658028
O      -6.07333380     0.35365277    -4.14997078     0.61833683    -0.04417177    -1.08129589
O      -9.88876722     8.25559090    -8.12096067     0.08592675    -0.19579715     0.66991323
