# total energy = -630.42216787 eV

CRYSTAL
PRIMVEC
        0.00279571     0.02951795    -7.98606283
       -7.83802570     0.01298533    -3.99532603
       -3.92160916     8.71933433     0.00634407
PRIMCOORD
56 1
Li     -3.92840548     2.16938367    -1.91490685    -0.20901112     0.08128689    -0.29900118
Li     -3.96406268     2.33080623    -5.94218248     0.76757807    -0.00420203     0.01803339
Li     -7.74515974     2.16245777    -9.97522074    -0.68979796    -0.11725479    -0.00460344
Li     -7.72957874     2.25152705    -6.02188808    -0.04418070     0.28999977     0.11667451
Li     -3.97105187     6.40799928    -1.92809301     0.35689240     0.28239084     0.14389514
Li     -3.95945600     6.60701278    -5.87666494    -0.76683186    -0.09440893    -0.33792061
Li     -7.80583043     6.49843711   -10.01595200    -0.41044639     0.07209503    -0.20493869
Li     -7.97653444     6.36366851    -5.82576778     0.39828448     0.12307675    -0.17139753
Ti     -1.95856290     2.36771332    -3.95611940    -0.12595468     0.74558673    -1.06532943
Ti     -5.95736802     6.65172669    -7.92451956     0.69197013     1.37858984     0.45078000
Ti     -7.71540278     4.41863940    -7.83948817    -0.73586423     0.20400080     0.31832331
Ti     -7.91096636     4.34942976    -3.73568203    -1.05581454     0.47141368    -1.60207398
Ti     -3.94458316     4.25493405    -7.80531600     0.13610646     1.19405948     1.28263516
Ti     -4.16303863     4.46086809    -3.77631937     0.62810824    -0.27631060    -0.04182090
Ti     -1.70911832     0.05946000    -2.14554861     0.63735315    -0.49658555     1.02078577
Ni     -5.79757015     2.07279633    -7.94762334    -1.09274065    -0.14958558    -0.49770161
Ni     -5.91445090     2.39760483    -4.10964939    -0.38027330    -1.05677077     0.13962820
Ni     -9.88934559     6.29950008    -7.97174757     0.09890099    -0.34396743    -0.71988133
Ni     -9.93500358     6.67010405    -3.80884316    -0.45215720    -0.97277150    -0.15788372
Ni     -1.88936210     2.07232214    -8.07466836    -0.79001772     0.61804620     1.70436146
Ni     -5.89468037     6.63120118    -3.87700922    -1.16233265     0.30947315    -2.05799130
Ni     -1.95153488     0.03564779    -5.93016378     0.31019116     0.20904229    -0.39745792
Mo     -9.81258938     8.65343688   -10.36159430    -1.74044041     1.54702942    -0.31049448
Mo     -9.66389001     8.72862472    -6.22448889     1.10720832     0.21366767     0.77922610
O      -1.83401886     2.05292762    -1.98417916    -1.05609164    -0.73626205    -0.28192845
O      -1.95434625     1.86518093    -5.98610663     0.09872244     0.37863831    -0.03831832
O      -5.87331819     6.82101445    -2.08187731    -0.11887473     0.48286715     1.05375475
O      -5.93365577     6.90616811    -5.87784246    -0.55963177    -0.16953907    -0.51018942
O      -5.94170926     1.88452239    -9.83010731     1.17120901    -0.15471301     0.15381534
O      -5.80109891     1.94802349    -6.09190756    -0.27999947     0.56373815    -0.16591106
O      -9.99490526     6.79591456    -9.92934021     1.09681524    -0.59128368    -1.01773667
O      -9.82767263     6.96614752    -5.58443785    -0.77058301    -0.40596832    -0.60099160
O      -3.88482697     2.55359081    -3.94416428    -0.71407450    -1.01512130    -0.06978540
O      -3.99049349     2.33594144    -7.96557697     0.25555236    -0.26191319    -0.36479855
O      -7.83877252     2.45803225    -4.09428281     0.31516895    -0.72314331     0.26680531
O      -7.81485007     2.54790131    -7.96035625     0.20807182    -1.50276244    -0.53955839
O      -4.07123459     6.36537993    -4.04788697     1.08248639    -0.09348372     0.76729818
O      -4.08332243     6.41458315    -7.89770012     1.39790266    -0.01014216    -0.13999068
O      -8.09950041     6.29081148    -3.98041123     0.92235148     0.27489874     0.69994651
O      -7.97543591     6.34060812    -8.17239819     0.76672474     0.12159388     1.52002686
O      -3.86648873     4.54598225    -2.02125154    -0.32742910    -0.42641699     0.38810544
O      -3.93081346     4.39802922    -6.00383621    -0.19236818    -0.07998558    -1.15034536
O      -7.90768083     4.45547417   -10.01484791     0.52181143    -0.31464314     1.48633667
O      -7.61527619     4.44390982    -6.09041768    -0.87615725     0.40809646     0.09513024
O      -8.03822242     8.54548311    -2.22954717     0.38396770     0.70975509     0.45763352
O      -7.86892761     8.71769422    -6.02001987    -0.08293332     0.36485376    -0.00865716
O      -7.71903125     0.12389497    -6.24110338    -0.81692164    -0.07436386     0.59400982
O     -11.68497277     8.72536619   -10.08168589    -0.23819246     0.17530134     0.43564724
O      -2.03553714     4.32915177    -4.03477725     0.67923684     0.68254441     0.11711839
O      -2.04692353     4.04493749    -7.95844363     0.93634239    -0.56052184    -0.56239182
O      -5.99962466     4.18731345    -4.17985723     0.47092450     0.92010516     0.93686700
O      -5.86224920     4.73491573    -8.14592582    -0.09095690     0.13417845    -0.02669079
O      -1.93914129     0.49071961    -3.90894518    -0.50796264    -1.18396521    -1.28088499
O      -5.89292868     8.67210427    -8.10213638    -0.06439917    -0.37902054    -0.33701933
O      -6.05185206     0.59436329    -4.18696060     0.82509492    -1.50754056     1.42004749
O      -9.79050482     8.09535887    -7.88944346    -0.02153986     0.55222965    -1.58155178
