# total energy = -630.81254048 eV

CRYSTAL
PRIMVEC
        0.00285542     0.02004370    -7.95977623
       -7.82940539     0.00763210    -3.98158109
       -3.91729101     8.74642787     0.01461334
PRIMCOORD
56 1
Li     -4.02718133     2.23979861    -1.99269066     0.68091368     0.10000656     0.30342255
Li     -3.78765429     2.14237169    -5.90048124    -1.07781336     0.02261530    -0.36820050
Li     -7.82206382     2.47697076   -10.02624238     0.13562356    -0.69078644     0.40603712
Li     -7.73813867     2.31855594    -5.90453657     0.17906193    -0.15742572    -0.01760132
Li     -3.88973827     6.24240344    -1.85972450    -0.02394029     0.27681801    -0.15520871
Li     -3.88933516     6.48186698    -5.63193856    -0.27624548     0.13129115    -0.57905206
Li     -7.90383608     6.56477873    -9.92289390    -0.27037390    -0.24310286    -0.16366171
Li     -7.92813783     6.49358964    -5.86820879     0.36141005    -0.05539196     0.18207712
Ti     -1.85264473     2.22464212    -4.03702024    -0.46650432     0.04836415     1.15712244
Ti     -5.93591759     6.68005731    -7.95568749     0.59687934     0.90629581     0.13802081
Ti     -7.78206568     4.38415099    -7.71064782    -0.24575140     0.11840415     0.94470791
Ti     -7.77039084     4.30140064    -3.72781293    -0.65970429     0.91616135     0.53544413
Ti     -3.88671599     4.46160057    -7.49959775     1.12400361    -1.00632920    -2.60602578
Ti     -4.01422228     4.31505836    -3.74955322    -0.08273924    -0.00747144     1.63973127
Ti     -6.06647380     8.70481649    -2.10737042    -0.92553446     0.84615725     0.19842742
Ni     -5.79202746     2.44155127    -8.09478438     0.60609453     0.73431276     0.60363397
Ni     -5.85645260     1.92482141    -3.98451175    -0.31931465     0.02648282    -0.20473554
Ni     -9.81921531     6.67023344    -7.90158529     0.03616135    -0.45237164    -0.05794892
Ni     -9.81556697     6.50725087    -3.97476675     0.34378498    -0.61754269    -0.02442995
Ni     -1.92128387     2.11632215    -7.99156495    -0.10038109    -0.13454801    -0.14160144
Ni     -5.85659328     6.54802727    -4.04249832    -0.61537941     0.93242831     0.85137839
Ni     -2.02878885     0.02801551    -5.95991378     0.12893452    -2.03242192    -0.59352878
Mo     -6.08668959     0.08281377   -10.15226884     1.35134111     0.49357850    -1.08705635
Mo     -5.84082133     0.02304905    -6.38109599    -1.52979696     0.45671364     0.00685384
O      -1.79983540     1.94618084    -2.01410119    -0.74042817    -0.44460257    -0.04916315
O      -1.98808694     1.80404948    -6.05236822     0.58289554     1.40419281     0.16038324
O      -5.99087138     6.80075151    -2.07161632     0.63403854     0.00266535     0.29650695
O      -5.88229017     6.84934440    -5.99119944    -0.30611719     0.64500065     0.69724515
O      -5.88259748     2.08924743   -10.14765712    -0.52745313    -1.11613737     1.06666715
O      -5.77827641     1.89847069    -5.78580324    -0.39216872    -0.06232286    -0.76292429
O      -9.87366452     6.87811397    -9.78175828     0.35105776     0.40208898     0.22391230
O      -9.79036923     6.87117618    -6.09979237     0.38161348    -0.90163484     1.49329760
O      -3.98682465     2.28509149    -3.98415021     1.60322127     0.87179265     0.34353828
O      -3.87176562     2.52309144    -7.96842236     0.42020297     0.42051773     0.30798674
O      -7.81540498     2.28086991    -3.97736522    -0.28116496     0.99509717     0.17315080
O      -7.66436431     2.50858063    -8.02856873    -1.38359461    -1.37131992     0.04852215
O      -3.79092496     6.36551247    -3.71034164    -0.71701690    -0.38005712    -1.77224441
O      -4.05735257     6.41938405    -7.87292425     1.24373379    -0.96997451    -0.11331755
O      -7.90743783     6.29757975    -3.89537553     0.22957210     0.27497751    -0.44006486
O      -7.85817879     6.26336436    -7.96712295    -0.07062060     1.39016528    -0.01691260
O      -4.00845318     4.33035006    -1.97723347     0.42991358    -0.26365279    -0.90326267
O      -3.80157980     4.28534405    -5.78755921     0.12455237     0.48809928     0.74448981
O      -7.68730197     4.31341271    -9.86066617    -0.50092692     0.29258089    -1.92725786
O      -7.76821281     4.36423111    -5.92763357     0.17938482    -0.11600170    -0.48040741
O      -4.04076035     0.12823206    -9.91661709     1.03731330    -0.38189648    -0.55633214
O      -7.95091334     8.69346398    -6.01945080     1.05120045    -0.04386850    -0.06351741
O     -11.57959966     8.74901695    -6.21755395     0.44798753     0.07954401     0.76200685
O      -0.00689895     0.03366058    -6.05476081    -0.45204840     0.22728125     0.45792265
O      -1.90857438     4.11978204    -3.88216688    -0.35745441    -0.88045018    -0.58206252
O      -9.74847221     4.67683790    -3.99174459    -0.59280260    -0.63919788     0.35111480
O      -5.88362747     4.72835188    -4.04203240     0.00864515    -0.69922858    -0.13766880
O      -5.75043845     4.38862199    -7.96697944    -0.95006809     0.24837124     0.43862631
O      -1.92663039     0.26750105    -3.98440823    -0.11736438    -0.61940991    -0.26652110
O      -5.84566940     8.51071703    -8.08847345    -0.30056357    -0.28280679     0.15828141
O      -9.81374096     8.36391208    -3.94529145    -0.03675860     0.25167923    -0.23229233
O      -5.81535410     0.62394688    -8.12631360    -0.04396864     0.00880653    -0.40807844
