# total energy = -630.40151792 eV

CRYSTAL
PRIMVEC
        0.00279571     0.02951795    -7.98606283
       -7.83802570     0.01298533    -3.99532603
       -3.92160916     8.71933433     0.00634407
PRIMCOORD
56 1
Li     -3.92196507     2.35383155    -1.91610373    -0.25700020    -0.02883117    -0.08625342
Li     -4.17423801     2.41768484    -5.95621354     1.43068241     0.02619738     0.37295493
Li     -7.80242742     1.95413837    -9.86418163    -0.34578384     0.58024912    -0.20030839
Li     -7.96231697     2.42533531    -5.97767007     0.47203098     0.02372962     0.66514681
Li     -3.94045091     6.52315177    -2.10642334     0.23588679    -0.09548017    -0.04526422
Li     -3.89420150     6.39569905    -5.96616794    -0.42790028     0.44331265    -0.07429116
Li     -7.81306541     6.75944664    -9.99837179    -0.31518867    -0.45121084     0.17891158
Li     -7.76599332     6.43387887    -6.05883852    -0.33389003     0.19074231     0.38125735
Ti     -1.96459154     2.31311911    -3.94239319    -1.10573039    -0.50130649    -1.01658172
Ti     -5.75236220     6.61872254    -8.07800362    -0.93465564     1.68716830     0.59576688
Ti     -7.76214365     4.50563956    -7.85832929    -0.18294446    -0.06811950    -1.66101186
Ti     -7.98987316     4.40474342    -3.70589524     1.76387874    -0.86001814     0.40974047
Ti     -3.95878614     4.38864549    -7.77915709     1.38202118    -1.23048368    -2.65187911
Ti     -4.10020988     4.37742110    -3.77612388    -1.29958889     0.71581519    -0.89820138
Ti     -1.77017805     0.09642658    -2.01601716    -0.72578470    -0.34157056     0.60026039
Ni     -5.84712938     2.04746060    -7.82144937    -0.07709301     0.28558931    -1.20542759
Ni     -5.99710877     2.20709400    -3.88331227    -0.00874138    -1.12166663    -0.59224232
Ni     -9.91641798     6.35044505    -8.00589158     0.26259507    -0.00452557    -0.40680000
Ni     -9.72806293     6.45173398    -4.03439893    -0.83608570     0.08108301    -0.01078008
Ni     -2.02886475     2.19557486    -7.85324534     0.60059524     0.01670021    -0.34424016
Ni     -5.97640295     6.89681815    -4.06396359     0.48085672    -0.91325141     0.15047898
Ni     -5.73705251     8.71383227    -6.01556736    -1.63669902     0.54862616     0.16516462
Mo     -9.77487782     8.73927850   -10.29111753    -0.82411586    -0.40428866    -0.82326527
Mo     -9.66653823     8.72760851    -6.32781412     1.28618042    -1.38134787     0.51224542
O      -2.05815560     1.96111817    -1.81699231     0.32411648     0.81964704    -1.02970703
O      -2.04076580     1.84981435    -5.86262163     0.66514293     0.26026775    -0.58254764
O      -5.90437304     6.86139468    -2.03239581     0.38395669    -0.14559685     0.07345944
O      -5.89153058     6.85671217    -6.00999053     0.31335411     0.53121049    -0.11757212
O      -5.85047886     1.86760692    -9.71416961    -0.52102034    -0.14610007     0.14884187
O      -5.85139549     1.83161559    -5.98392825    -1.25727777     1.54862689     0.07629830
O      -9.92288020     6.81131946   -10.13747421     1.22649965    -0.22607670     0.21224779
O      -9.80803717     6.70858252    -5.90186245     0.11404859     1.24119422    -0.20734218
O      -3.92990011     2.44718710    -3.89139395    -0.44837734    -0.24783299    -0.36192018
O      -3.97616787     2.39363555    -8.04278348    -0.11535745     0.27222768     1.38548702
O      -7.91056319     2.41430510    -3.97023811    -0.40769778    -0.27616249     0.05689887
O      -7.90678342     2.47359726    -7.94946598     0.63025640    -0.34229920     0.50351593
O      -4.03909014     6.32918718    -4.14373813     0.09839116     0.07079368     1.19927572
O      -3.85423287     6.30978442    -7.96073894    -0.21555926     1.26187397    -0.89000180
O      -7.84223198     6.31880229    -3.90620382     0.20768390     0.75704854    -0.85337841
O      -7.81508727     6.43055451    -8.06910372     0.17205106    -0.69682031     0.15840171
O      -3.99857690     4.51663431    -2.07284763    -0.14056705    -0.09159788     1.55501790
O      -4.04212808     4.48419646    -6.09194212     0.16331901    -0.94826480     2.80222230
O      -7.99103537     4.32316895    -9.94939936     0.05199041     0.15493179     0.67650561
O      -7.79979388     4.50223442    -6.14293415    -0.04330387    -0.52154752     1.50592522
O      -7.98627837     8.64287471    -2.13743749    -0.72934858     0.18787395     0.37513888
O      -3.95531735     0.03710037    -6.16088558    -1.12180015    -0.35116601     0.03428602
O      -7.85642197     0.08830716    -6.17944883     2.54158934    -0.33553014    -0.05082442
O     -11.70305725     8.70644342   -10.03516155     1.12488542     0.45099500     0.30867468
O      -2.08873568     4.35222564    -3.94179031     0.86868006    -0.35561504    -0.57560851
O      -1.96446161     4.29256909    -0.14077464    -1.47428834    -0.27947368     0.21195450
O      -6.04341462     3.98703553    -4.00200515     0.75948327     1.00161708    -0.05935786
O      -5.80851531     4.65604604    -8.09923209    -1.39096443     0.33793553    -0.16291395
O      -2.10701814     0.31699540    -3.85452548     0.23897898     0.38468282    -0.89123785
O      -5.72619805     8.67556400    -7.99854008    -0.41108032    -1.37382568    -0.32166678
O      -5.95369772     0.29716971    -4.16412867     0.10271623    -0.23854725     1.16385877
O      -9.79393578     8.14907085    -8.05788383    -0.46791585     0.43598771    -0.32686102
