# total energy = -631.16926449 eV

CRYSTAL
PRIMVEC
        0.00279571     0.02951795    -7.98606283
       -7.83802570     0.01298533    -3.99532603
       -3.92160916     8.71933433     0.00634407
PRIMCOORD
56 1
Li     -4.01544812     2.12796124    -1.95333251     0.85606358     0.18676661     0.23922835
Li     -3.88469759     2.02396064    -6.05460816    -0.14390740    -0.10811224     0.05730293
Li     -7.74729398     2.20895549    -9.99676126    -0.50189030     0.46561075    -0.00595985
Li     -7.67915753     2.44605948    -6.03699449    -0.58387577    -0.40014804     0.57173471
Li     -3.94339358     6.34813623    -1.79780270     0.29287477     0.16901341    -0.73449679
Li     -3.79545215     6.41580794    -5.82948067    -0.32462426    -0.00259701    -0.28814564
Li     -7.77338855     6.37561052    -9.82479898    -0.45150505     0.04290283    -0.65218946
Li     -7.94489059     6.43140339    -5.77826221     0.51682004     0.29195135    -1.17345066
Ti     -1.98101553     2.20561813    -4.13150714     0.09622718     0.39302314     0.42849835
Ti     -5.87764255     6.74462553    -7.89605131     0.84765285    -0.30401352     0.11191019
Ti     -7.79835967     4.39671744    -7.76372696    -0.83997420     0.48374361     0.27108218
Ti     -7.87721106     4.33696358    -3.73229206     0.49538701     0.51077309     1.27455266
Ti     -3.83187903     4.28188774    -7.66388098    -0.52422829     1.35601433    -1.45219834
Ti     -4.08439365     4.28633220    -3.67380363     0.01603582     1.11741528    -1.95639246
Ti     -6.11642810     8.71290312    -2.10508017     0.25388071    -0.59229426    -0.33587421
Ni     -5.88397708     2.40892849    -7.97958466     0.28857505     0.08575594    -0.72011649
Ni     -5.95221379     2.02968953    -4.00963483     1.37119478     0.63743254     0.12134937
Ni     -9.87180268     6.55242402    -7.89377817     1.60487277     0.53002565     0.49135666
Ni     -9.77513554     6.40099823    -4.08652435     0.25749987     1.30343946     0.14647969
Ni     -1.91420097     2.01981313    -8.09095782     0.45029163     0.32557893     0.87989297
Ni     -5.85255356     6.65510275    -3.95764724     0.09103435    -0.77460475    -0.18301684
Ni     -5.85811126     8.72280431    -6.03295514    -0.54677075    -0.03191706     0.33122439
Mo     -6.00710524     0.11654055   -10.28146453     0.08345508    -1.33566021    -0.59334924
Mo     -5.87563006     0.09143269    -6.33788727     0.60429855    -2.09764601    -0.98086458
O      -1.95518535     1.85074187    -2.00199839     0.50405341     1.04212909    -0.25794965
O      -1.98457295     1.81641080    -6.16372203     0.24114277     0.75954862     0.99964564
O      -5.84936399     6.78488429    -1.96815052    -0.21573557    -0.00224662     0.04300000
O      -5.73773541     6.90620600    -5.96076813    -0.67934041    -0.39943323     0.13466873
O      -5.83082993     2.02276538   -10.08394668    -0.71960251     0.20935872    -0.42716106
O      -5.79642076     1.95792673    -5.86548044    -0.76270333     0.62143793    -0.01525681
O      -9.77780621     7.03303344    -9.74353190    -0.18845789     0.02303196     0.12910448
O      -9.79505386     6.81280363    -6.04852324    -0.06974640    -0.12766088     0.23493755
O      -3.99826540     2.36551766    -4.08263566     0.46273693    -0.12161078     0.58538375
O      -3.79585720     2.43081895    -8.01638187    -0.72873427    -0.50585139     0.28130619
O      -7.79006278     2.43942150    -3.98474368    -0.44801267    -0.88132161    -0.51143638
O      -7.91092373     2.37114574    -8.02846852     0.62414658     0.44603271     0.23359907
O      -3.77403970     6.31138730    -3.90874496    -1.62349098    -0.23050285    -0.00750207
O      -3.86844610     6.34801023    -7.89915935    -1.11988329    -0.13434719    -0.33074972
O      -7.85280451     6.25709770    -4.02840069    -0.46421667     0.84202606     1.12625250
O      -7.89740542     6.40694362    -7.95841145     1.05535965    -0.92321989     0.59265907
O      -3.87214184     4.37482185    -1.98199677    -0.19317638    -0.17223291     1.54041865
O      -3.85728778     4.53141475    -5.97012806     0.10880916    -0.74531513     1.58873621
O      -7.81194755     4.34884310    -9.88050835    -0.19409509     0.08015462    -1.22823702
O      -7.76218084     4.38711979    -5.97577178    -0.13622110    -0.27782243    -0.85088546
O      -3.96075501     0.10433804    -9.83896046    -0.82479214     0.06019868    -0.87140737
O      -7.95382594     8.67063774    -6.01851399     0.35790439     0.15714187    -0.54677991
O     -11.55160179     8.70675155    -6.12467069    -0.81160936     0.19914179     0.60560803
O      -7.80046688     0.16382262   -10.21618703     0.90432756     0.00110208     0.41360050
O      -1.99094875     4.10380176    -3.86522639    -0.04655944    -0.95309938    -0.84953005
O      -9.76859933     4.56036212    -3.98252799     0.02479847     0.00254314    -0.31418461
O      -5.92761146     4.77188667    -4.02173570     0.52767635    -0.26341466     0.27717738
O      -5.86634259     4.33906842    -8.00559483     0.44325821     0.07345153     0.24497699
O      -2.05928868     0.15725301    -4.02727023     0.34376053    -0.18309729     0.19002895
O      -5.84537531     8.55043243    -8.04177906     0.06369877    -0.26790025    -0.19993988
O      -9.63997670     8.39093203    -4.08447290    -0.60485723    -0.38821305     1.50130170
O      -5.89371823     0.61083259    -8.12833760     0.02432268    -0.40332275     0.03768581
