# total energy = -631.13751321 eV

CRYSTAL
PRIMVEC
        0.00285542     0.02004370    -7.95977623
       -7.82940539     0.00763210    -3.98158109
       -3.91729101     8.74642787     0.01461334
PRIMCOORD
56 1
Li     -3.83606511     2.03201346    -2.03927736    -0.77403412     0.38113583     0.48261700
Li     -4.03742316     2.12299381    -5.81586473     0.12745260     0.05005046    -0.57825028
Li     -7.79853204     2.34164637    -9.96725261     0.05788455    -0.51346006    -0.06313461
Li     -7.86295136     2.45464838    -5.90623985     0.05775927    -0.39910916    -0.05876887
Li     -3.89721633     6.43610478    -1.96552353     0.18132847     0.11777208     0.13529941
Li     -3.94032734     6.55395715    -5.96760105    -0.48145664    -0.32143317     0.78310398
Li     -7.84852728     6.51411958    -9.91873374     0.01759605     0.05866839    -0.02205172
Li     -7.82687521     6.57799884    -5.94910169     0.05029865    -0.08995862     0.08988883
Ti     -1.91692085     2.41914995    -4.17074691    -0.54262447    -2.04652490     0.26415728
Ti     -5.78524498     6.83479704    -8.03604836    -1.09626993     0.30005039     0.90219676
Ti     -7.69285805     4.42274159    -7.80491603     0.85945139     1.01805147     0.19647298
Ti     -7.69439493     4.34993505    -3.63531895     0.12452864     0.23563923    -0.95633950
Ti     -3.83596192     4.34986180    -7.60284022    -0.32617811    -0.73397214    -0.40514327
Ti     -3.91147774     4.42960904    -3.63155252    -0.82280603    -0.88751216    -1.07975929
Ti     -2.14595197     0.02759998    -2.14717422     0.47372877     0.19942297    -0.85315396
Ni     -5.84797901     2.38744895    -8.00755271     0.19308039    -0.04823637    -0.72038346
Ni     -5.93433428     2.16070361    -4.03728746     0.38138449    -0.47891480     0.64203944
Ni     -9.78278486     6.50112410    -7.85420073     0.27764014    -0.00614575     0.33935021
Ni     -9.73268373     6.30668707    -4.06161950    -0.27964628     0.29028639     0.18091101
Ni     -1.96603077     2.32020596    -8.01594277    -0.57381884    -0.34541438     0.28208552
Ni     -5.91349750     6.73162323    -3.93463523     0.33616071    -0.32328283    -0.73783699
Ni     -2.07289479     0.05449285    -6.01189124    -0.06617534     0.35170370     0.81737130
Mo     -9.96482287     8.62105626   -10.10648610    -0.79100531     3.28383167    -1.25164866
Mo     -9.86628082     8.67638211    -6.30450860     0.75799558     0.48876208     0.50677245
O      -1.94148184     1.91469572    -1.98665583     0.43957982     0.16549440     0.11756308
O      -2.06827726     1.95444251    -6.10878662     0.34652194    -0.28143471     1.04604357
O      -5.80314942     6.71613788    -1.99152299    -0.42283964     0.59097687    -0.21913942
O      -5.96567591     6.98898284    -5.88394901     0.97540490    -0.61760141    -0.18527712
O      -5.90046977     1.89861386   -10.11923253     0.47537125     0.61611043     0.66561544
O      -5.93805036     1.88884021    -5.91807436     0.06552543     0.51632210    -0.15009243
O      -9.81985387     6.86659184    -9.73375556     0.34681753    -1.45685217    -0.14598917
O      -9.83869906     6.82468695    -5.94476298     0.48059986    -1.92206202    -0.10355783
O      -3.82943389     2.39818988    -3.90995890    -0.01082244     0.26381604    -0.69395004
O      -3.89407637     2.42238608    -7.96268875    -0.40185664     0.43268113     0.13044792
O      -7.95267976     2.41138520    -3.94126242     0.89704717     0.25023232    -0.22473624
O      -7.82947980     2.45262636    -8.02133797     0.66472624    -0.21439562     0.03092168
O      -3.83268439     6.30055830    -3.99414177    -0.47310468     0.84361205     0.55353385
O      -3.89541595     6.32563931    -7.88349474    -0.09859204     0.49115191    -0.18461263
O      -7.83585237     6.26427617    -4.03165245     0.12257506     0.07066963     0.72093787
O      -7.76366579     6.46388839    -8.01257595     0.23690022    -1.11298197     0.59612313
O      -3.58686032     4.33231018    -1.94148529    -0.47382197     0.53042534     0.64606382
O      -3.97825654     4.36280025    -5.85629851     0.40173077    -0.01384457    -0.41891777
O      -7.87224497     4.34120631    -9.84581077     0.08777427     0.31113644    -0.48062402
O      -7.75302705     4.32087899    -6.06720955    -0.03702881     0.47824502     0.80002096
O      -7.88682740     8.68413526    -9.92278884    -0.34293002     0.01581984    -0.58201080
O      -8.00365469     8.52835321    -5.94325689    -0.80334248     1.31930296    -0.35242371
O     -11.64020852     8.53621946    -6.00305297    -0.33730920     0.58856903    -0.23453335
O      -7.82774800     0.04188080    -9.88603173     1.09265733    -0.73882612    -0.55027581
O      -9.68409404     4.25853756    -7.96284680    -0.94638214     0.45915225    -0.47199937
O      -9.69586713     4.42004614   -11.83728720    -0.41173978    -0.07392834    -0.46198010
O      -5.82278694     4.12791220    -3.89552207    -0.24688168    -0.28131546     0.04569913
O      -5.75248622     4.34289162    -8.16394793    -0.31049406    -0.18614771     0.68400383
O      -1.89248130     0.33737990    -3.99370178    -0.39600630    -0.19501889     0.00278839
O      -5.95086374     8.67020283    -7.99184805     0.70273421    -1.11228289    -0.10696426
O      -5.98473285     0.21017661    -4.01931426     0.17818269    -0.17329786     1.29610251
O      -5.88245729     0.51052543    -8.07937695     0.11111940     0.40824253    -0.56660479
