# total energy = -630.83715814 eV

CRYSTAL
PRIMVEC
        0.00279571     0.02951795    -7.98606283
       -7.83802570     0.01298533    -3.99532603
       -3.92160916     8.71933433     0.00634407
PRIMCOORD
56 1
Li     -3.96084750     2.36662466    -1.80710865     0.09933978    -0.17389148    -0.49751198
Li     -4.02188524     2.05855956    -5.89138937     0.24893420    -0.00966923    -0.18283496
Li     -7.86066341     2.37615490   -10.05166670     0.69713214     0.32075050    -0.05314880
Li     -7.96289664     2.26643921    -5.86467322     0.43714027     0.17344899    -0.23093699
Li     -3.88935615     6.33934029    -1.91029931     0.02759736    -0.25518716    -0.16173848
Li     -4.03310740     6.45261023    -5.86090949     1.11296078    -0.15529658     0.07208494
Li     -7.89456699     6.55631686    -9.86191151     0.32383503    -0.19821049    -0.25867879
Li     -7.86273243     6.77791009    -5.91490941     0.09152658    -0.02356582     0.06326424
Ti     -1.90580704     2.34901263    -4.17056190    -0.51116240     1.43119466     1.00569909
Ti     -5.72001579     6.75455704    -7.99357067    -0.05106476    -0.60677529     0.39561100
Ti     -7.65899533     4.53892595    -7.75725309    -0.37894729    -0.92283503     0.44524641
Ti     -8.01081551     4.46110029    -3.90111845     1.67430774    -0.27562666     1.56528062
Ti     -3.79088491     4.23724552    -7.63667210    -1.31523370     1.38554741    -0.78531895
Ti     -4.08765126     4.41899245    -3.80047860     0.36357237    -0.40838672     1.49642684
Ti     -2.16443314     0.02104611    -2.33106925    -0.66458483    -0.73351418     1.57139660
Ni     -5.94861118     2.06194599    -7.82927621     0.06821067     0.97103664    -1.53788600
Ni     -5.83724660     2.30853528    -3.99671171    -1.68129466     0.17754660    -0.29451530
Ni     -9.79031047     6.40128340    -7.90123865     0.09991370     0.00993843    -0.82700821
Ni     -9.75611228     6.69188754    -3.94625376    -0.44763907    -0.04995091     1.14234781
Ni     -1.96454000     2.02219491    -7.99933348     0.44473525    -0.62571367     0.30708941
Ni     -5.91779782     6.52201154    -3.97112894     0.37434562     0.39945788     0.08535337
Ni     -1.89825903     0.04144771    -5.98365017    -0.98348129    -1.80175139     0.41979863
Mo     -9.97890822     8.71533809   -10.27136225     0.29184862    -0.06621704     0.88110103
Mo     -5.96276688     0.05175587    -6.39339633     0.64989593    -0.49956522     0.58834643
O      -1.99583767     1.83350255    -1.95096659     0.18853276     0.88229820     0.01603321
O      -1.93649581     1.83266631    -6.03487563    -0.10407659     1.20670308    -0.17168266
O      -5.90278893     6.79341912    -1.90440228     0.26796972     0.48489330    -1.14632055
O      -5.79410558     6.83733308    -5.88461861    -1.04768427     1.10797888     0.16462969
O      -5.81402196     1.84794438    -9.68381928    -0.97665061    -0.59098308    -0.67351199
O      -5.95005444     1.97990210    -6.03101895    -0.14254312    -0.24234525     0.74896663
O      -9.75211981     6.72710318   -10.06486490    -0.62821761     1.38442357    -0.32623994
O      -9.93191082     6.82104009    -5.68865431     1.14061220     1.01501956    -2.38266647
O      -3.94259659     2.46700589    -3.96963596     1.36143147    -0.71646354    -0.36352587
O      -4.11922953     2.39272404    -7.87209323     0.21236967    -0.42772761     0.32017824
O      -7.76058344     2.42802521    -4.00249465     0.28726311    -0.13196378     0.13191982
O      -7.86590330     2.47433490    -7.96686107     0.28525784    -0.31420568    -0.26969070
O      -3.88447434     6.34703212    -3.90768605    -0.48752944    -0.53361561    -0.18573163
O      -3.83647976     6.41067556    -7.93684082     0.28569794    -0.35159658     0.69906481
O      -7.82389910     6.44087770    -3.99542137    -0.04640864    -0.60867867    -0.08599417
O      -7.85535384     6.41509267    -7.87364250     0.06774454     0.22078300    -0.17573182
O      -3.71101568     4.26525385    -2.00408386    -0.59349478     0.69677731    -0.73337607
O      -3.63644588     4.28882567    -5.87502188    -0.60668708     0.44291325    -0.32953375
O      -7.64412597     4.39637313   -10.10141212    -0.63451772     0.09866146    -0.28334321
O      -7.77043391     4.33863733    -5.99591751     0.19353391     0.06740833     0.06124782
O      -7.90262224     8.71589636    -2.05493608    -0.25103314    -0.44938036    -0.66136444
O      -4.08642711     0.08966400    -6.07501681    -0.65912342    -0.41187871     0.25015130
O      -7.74729464     0.06000091    -6.27898435    -0.45861378    -0.10094830     0.60647908
O      -7.82692846     0.03779711    -9.94042352     1.57039844    -0.38905243    -0.06941096
O      -9.61563854     4.41296815    -8.06193150    -0.96449665    -0.48936534     0.09132504
O      -1.93835660     3.87394143    -7.94579761    -0.56164332    -0.25878908    -0.45108580
O      -5.91198606     4.19096973    -4.08699852     0.35208585     0.29877071     0.07470082
O      -5.76059337     4.79883001    -8.00512257     0.25776034    -0.40876204     0.46101850
O      -1.89604245     0.40229243    -4.06809064    -0.33457177    -0.29059995    -1.55881630
O      -5.78111660     8.64098572    -7.90661143    -0.10287641     0.96004512    -0.11649769
O      -6.14387903     0.41938385    -4.03559379     1.04511727     0.14900399    -0.12964412
O      -9.77278160     8.26672828    -8.17397998     0.07425147    -0.77761338     1.13891396
