# total energy = -630.44500623 eV

CRYSTAL
PRIMVEC
        0.00285542     0.02004370    -7.95977623
       -7.82940539     0.00763210    -3.98158109
       -3.91729101     8.74642787     0.01461334
PRIMCOORD
56 1
Li     -3.94434928     2.27462774    -1.90722964     0.48891841     0.25699957    -0.01357159
Li     -3.89508275     2.17160871    -5.98209235    -0.12235509    -0.32627571     0.24428109
Li     -7.85236540     2.39309366    -9.99616623     0.29537100     0.03236423    -0.07134241
Li     -7.85191873     2.39280814    -5.98214642     0.61211189    -0.51288787     0.82036997
Li     -3.88926609     6.26314755    -1.96920262    -0.04834388     1.06224023    -0.30016434
Li     -3.95865582     6.52104723    -5.91744233     0.54349767     0.06562146     0.16371847
Li     -8.03275389     6.25287368    -9.87678427     0.49836082     0.12646207     0.04219414
Li     -7.92238626     6.78377585    -5.77371680     0.59298801    -0.38604988    -0.53164246
Ti     -1.82793042     2.17346034    -3.95220768     0.04880818     0.62661779    -1.23009601
Ti     -5.86335694     6.76184906    -7.94412437    -0.27126940     0.10242491     0.44045774
Ti     -7.87059753     4.37432971    -7.72170093     0.27545553    -0.35639695    -0.00900024
Ti     -7.85798659     4.49739088    -3.81668651    -0.71005869    -2.23683260    -0.77760750
Ti     -3.91503713     4.34050081    -7.67597036     0.83408276     1.58885966    -0.42136980
Ti     -4.19640886     4.25430879    -3.81209605     0.94379523     2.15923181     0.70507068
Ti     -6.17539360     8.67082009    -2.17756549     1.54537347     0.66462606     0.34403628
Ni     -5.81060296     2.43817147    -7.98800043    -0.50307638    -1.19459961     0.19511246
Ni     -5.80789665     2.00343097    -3.89722035    -2.15765254     0.15213259    -1.32417214
Ni     -9.88390903     6.53735268    -7.91881869     0.16880089     0.32715416     1.35040942
Ni     -9.73248778     6.48501782    -4.06081034    -1.85143608     0.31763447     0.19630849
Ni     -1.86745168     2.03217131    -7.86778482     0.62117445     0.94901249    -0.63019552
Ni     -5.80935784     6.71214089    -4.02489504    -0.61811756     0.67816792     1.00285906
Ni     -1.99123822     0.01861982    -6.09518672     0.54555350    -0.31471996     1.91049041
Mo     -5.95159444     0.12769401   -10.12781096    -2.88346091    -1.05481821    -0.41399127
Mo     -9.81169055     8.69846782    -6.26979245    -0.98423390     0.37670777    -1.21912101
O      -1.92106320     1.96371364    -2.11009348    -0.24768977    -1.36494152     1.34185845
O      -1.91361423     1.85611162    -5.97529836    -0.59888074    -0.23579663    -0.72097351
O      -6.09569474     6.83146353    -1.98054899     0.74329701    -0.20199913     0.35294270
O      -5.87001320     6.89289304    -5.92616135    -0.30017055     0.06739448    -1.64939974
O      -5.84760084     2.05317713    -9.96233268     0.19595349     0.35472704    -0.49101830
O      -5.90552846     1.90371408    -5.87168956     0.64551070    -0.36583834     0.95104392
O      -9.72193353     6.97116146    -9.68256815    -0.58873133     0.46968280    -0.54337617
O      -9.84524566     6.74176754    -6.02616685     1.23171948    -0.13543513     0.17108777
O      -3.99106761     2.37550271    -3.95875885     0.93227134    -0.47230870    -0.16149369
O      -3.83509991     2.51357837    -7.93687969     0.20107691    -1.20797400    -0.00125609
O      -7.73451628     2.43643487    -3.99267852    -0.52193154    -0.51811003     0.22392698
O      -7.74482645     2.28325128    -7.99645141    -0.83087312     1.07272302     0.23173566
O      -3.87945403     6.42982259    -3.98366837     0.05150971    -0.91948496     0.01545190
O      -4.03394975     6.34657806    -8.02454404     0.09744948     0.15618852     0.63300379
O      -7.91986217     6.40122237    -3.92667780     0.51582856     1.11713839    -0.37011002
O      -7.86495074     6.20184139    -7.91866524     0.26300911     1.84447827     0.04453953
O      -3.85203200     4.52087098    -2.05457004    -0.50051019    -1.92648454    -0.93068632
O      -3.63837644     4.54980512    -5.92250894    -1.07776319    -0.63546863     0.11953341
O      -7.84885118     4.33757497   -10.03403528    -0.08902359    -0.27501734     1.68696486
O      -7.63301211     4.24377042    -5.99367266    -0.46368276     0.16318254     0.37478128
O      -4.02187832     0.10533322    -2.04939322     0.71217567     0.53127851    -0.05506152
O      -7.93707485     8.69401392    -6.00910796    -0.06068409    -0.07443274     0.21974874
O     -11.56387495     8.51767314    -5.93929260    -0.06967811     0.98907964    -0.35158755
O      -7.76211823     0.06809488   -10.00693186     0.85191259     0.21966307    -0.07973809
O      -1.94713159     4.05565897    -3.97147746     0.10054261    -0.69520333     0.01374257
O      -9.73273291     4.61891361    -4.12390414    -1.09642662     0.21591513     0.08687033
O      -5.99962845     4.90498968    -3.86400819     2.41388949    -0.51571289    -0.97623485
O      -5.86073735     4.31738493    -7.93954006     0.63137641     0.22610220    -0.20294507
O      -1.75901499     0.03366498    -4.04804453    -1.19608891    -0.07134892     0.94601598
O      -5.84659948     8.63124995    -7.97714587    -0.43916217    -0.73449414    -1.40050949
O      -9.81995860     8.40415245    -3.91734315     0.50332694    -0.34636235    -0.70574292
O      -5.78408731     0.58786286    -8.05077673    -0.07468599    -0.21806273     0.47654220
