# total energy = -629.89328429 eV

CRYSTAL
PRIMVEC
        0.00279571     0.02951795    -7.98606283
       -7.83802570     0.01298533    -3.99532603
       -3.92160916     8.71933433     0.00634407
PRIMCOORD
56 1
Li     -3.74967158     2.52455797    -1.85633510    -0.61363250    -0.57891800    -0.16355267
Li     -3.89551078     2.00822772    -6.15589076    -0.14521338     0.24202525     0.98349855
Li     -7.69391948     2.22644022   -10.00886761    -0.43521091     0.29551739     0.32543034
Li     -8.09368928     2.62298872    -5.96217353     0.82106900    -0.66956593     0.20066029
Li     -3.95497836     6.44524163    -2.07734318     0.22970262     0.08301156     0.91078283
Li     -3.85709788     6.57751663    -6.03715042    -0.21976793    -0.39759495     0.23536985
Li     -7.84034970     6.42323352    -9.98835335     0.33016470     0.58133428     0.27224903
Li     -7.91693511     6.77096840    -5.93227605     0.00587297    -0.25894301     0.35278790
Ti     -1.94197111     2.23407715    -4.13688216     0.10140559     1.03458163     0.64404374
Ti     -5.93835405     6.64979046    -7.84710179     1.81377414     1.20170836    -1.12269853
Ti     -7.69120655     4.45872002    -7.75023478     0.01512685    -1.36628033     0.18558097
Ti     -7.93079705     4.39671277    -3.65524387     0.68257025     0.02583562    -0.37992734
Ti     -3.81722611     4.36270574    -7.74993156    -0.88225914     0.11492390    -0.73971383
Ti     -4.08658730     4.44274800    -3.74969299     0.60232976    -2.11286358    -0.62792950
Ti     -2.10412154     0.02208560    -2.20985195    -1.57840698    -0.68947760     0.42317082
Ni     -5.82813877     2.09370759    -7.87141345     0.14175396     0.25141825    -1.27883164
Ni     -5.95248277     2.40645860    -4.13846272     1.11598495    -1.40004404     0.41466017
Ni     -9.85185683     6.24003220    -8.08128332     1.13726393     1.48003737     0.18249739
Ni     -9.70856968     6.48685064    -3.99449363    -0.93718585     0.54382892     0.10718910
Ni     -1.80889376     2.14359123    -7.98031871    -1.93280439    -0.20955908     0.17449911
Ni     -5.76411032     6.60426923    -4.03302458    -1.89439191    -0.04774974     0.52390477
Ni     -2.11564870     0.02944928    -5.95746034     0.90528651    -0.82112692    -0.20110922
Mo     -9.99739562     8.75503263   -10.25986965     0.76995352     0.19725387     0.00525524
Mo     -5.99265784     0.05709201    -6.33128573     1.23790823     0.34264585    -0.26129006
O      -1.97529574     1.88755254    -1.96637498     0.42789110     0.96516408    -0.52019041
O      -1.96462927     1.89756224    -5.99977856     0.30666241    -0.34471600    -0.42734499
O      -5.87585149     6.82802427    -2.04882683     0.85749911     0.03846116    -0.01650631
O      -5.87871114     6.77057924    -5.92979320    -0.21133113     1.33922731     0.05351488
O      -5.85392963     1.92211000    -9.88976045     0.32826358    -0.65082261     1.06753776
O      -5.85764211     2.01671942    -6.02825772    -0.11874950     0.25567370    -0.21143922
O      -9.78450252     6.79980091   -10.03212086     0.21049254     0.11326379    -1.18973009
O      -9.87001398     6.88853597    -5.90929447     0.49756722    -0.34299329     0.71349014
O      -3.87498581     2.45001938    -4.04539221     0.51098947     0.33763970     0.26631523
O      -3.95915214     2.33045104    -7.92329401     0.06260190     1.02920653    -0.73744763
O      -7.81647878     2.38211375    -4.03503645     0.19182624     1.15265447     0.22049940
O      -7.70075344     2.33420415    -8.00138646    -1.32374528     1.17795421     0.46852437
O      -3.94236476     6.27956986    -4.01128953     0.75687866     1.14382795    -0.54547198
O      -3.79980121     6.35290662    -8.03745429     0.04620353     0.30483281     0.73141534
O      -7.74966458     6.29873961    -3.92657963    -0.58296961     0.12977140    -0.37613705
O      -7.78337147     6.39957288    -8.02410060    -1.03357437    -0.46690111     0.48971488
O      -3.76037132     4.50873866    -2.01780954    -0.14608583    -0.82593496     0.13635726
O      -3.72570797     4.41352762    -6.03857067    -0.11527070     0.26736654     1.68918409
O      -7.71502284     4.36235505    -9.87766424    -0.15430172    -0.05753466    -0.68461193
O      -7.72868986     4.46750236    -5.98572513    -0.17421381    -0.13553364    -0.40921288
O      -7.81988643     8.73751290    -9.91285882    -0.47608016    -0.16458699    -1.08377371
O      -4.12670900     0.12627595    -5.83006982    -0.27182554    -0.61157363    -0.35573138
O      -7.70037351     0.23092760    -5.96718087    -1.12402958    -0.86317648    -0.26353113
O      -3.91535387     8.68839719    -5.93293500     1.24038158    -0.09661608    -0.42855622
O      -9.64194552     4.25912942    -8.02268162    -0.92141842    -0.14623237    -0.07681383
O      -1.91536117     4.11304752    -7.99680671     0.58785572    -0.22355262    -0.35725183
O      -5.91380218     4.23688339    -3.98999546    -0.44574867    -0.04513718    -0.20302454
O      -5.75022063     4.76810520    -7.93873749    -0.62614293    -0.76585118    -0.22686841
O      -1.79164502     0.19926998    -4.07777184    -0.72875482     0.80301321     0.19211096
O      -6.00318830     8.60139586    -7.83684282     0.53158896     0.03740217     0.18239957
O      -6.11891857     0.54418171    -3.99692954     0.99427056    -0.73366009     0.34691744
O      -9.79131550     8.24521868    -8.09594957    -0.32421266    -0.47311571     0.32143944
