# total energy = -630.61258864 eV

CRYSTAL
PRIMVEC
        0.00285542     0.02004370    -7.95977623
       -7.82940539     0.00763210    -3.98158109
       -3.91729101     8.74642787     0.01461334
PRIMCOORD
56 1
Li     -3.99903547     2.30602674    -1.95926278     0.15108274    -0.30941664    -0.16874164
Li     -3.86565171     2.10355561    -6.04666150    -0.20780953    -0.20737590     0.05681692
Li     -7.89310354     2.35353114   -10.00264371     0.31273286    -0.14187721    -0.04928292
Li     -7.68832060     2.30662855    -6.03013826    -0.25221778    -0.17934742     0.32362517
Li     -3.88829429     6.25307798    -1.93738068    -0.12782860     0.26367260    -0.17992644
Li     -3.98095300     6.52081207    -5.91826634     0.42766185    -0.17133947     0.27263996
Li     -7.95250374     6.37290616    -9.88856148     0.57305435     0.10366104    -0.27916338
Li     -7.76815595     6.64072562    -5.93492046    -0.42745737    -0.10121803     0.48393659
Ti     -1.93921972     2.33614385    -4.05288015    -0.60558120    -2.22113231    -0.75352857
Ti     -5.86813682     6.73138878    -7.94100423    -0.17195558     1.84727967    -0.02122496
Ti     -7.77949991     4.42506696    -7.76949726     0.17839738    -1.41456758    -0.32508106
Ti     -7.69986166     4.33671509    -3.79128426    -1.35632193     1.10086187    -0.60073325
Ti     -3.91564661     4.41181123    -7.72926762     0.70317399    -1.87240272    -0.21495041
Ti     -4.03369202     4.42081263    -3.80118392     0.73246921    -0.54114060    -0.67741290
Ti     -6.00125485     8.74340149    -2.22765306    -0.51952875    -0.17031710     0.21316539
Ni     -5.85910040     2.34439525    -7.97660369     0.29034638    -0.55495223    -0.40868691
Ni     -5.85894409     2.26100122    -3.93794091    -0.12432196    -1.62081404    -1.50689792
Ni     -9.81870624     6.50325459    -7.74492752    -0.03457905    -0.07726838    -1.97851762
Ni     -9.74149073     6.29417883    -3.93611293    -0.00657246     0.29455167    -0.65688249
Ni     -1.96228351     2.39662271    -8.14130835    -0.07435245    -1.09012526     0.87571490
Ni     -5.84394396     6.67803561    -3.85446475    -0.54526994    -0.31293623    -1.36515035
Ni     -5.91801653     8.72068660    -6.00368459     0.11154725     1.19797754     1.19790467
Mo     -9.89169917     8.70338143   -10.04263296     1.45948520    -0.13631080    -1.79739286
Mo     -9.86476126     8.69388905    -6.35684227     1.31685419    -0.85390904     1.46373228
O      -1.99007889     1.86233418    -2.08456182     0.62729446     1.39531650     0.42314107
O      -1.91991766     1.95518118    -6.06167039    -0.28427112    -1.12605522     0.10220278
O      -5.91771411     6.77224351    -1.96380100     0.63884886    -0.09403053     0.17046967
O      -5.85920517     6.81365524    -5.86211309    -0.14102528     0.49013942    -0.44398745
O      -5.93363429     2.07576481    -9.90701151     0.31252003    -0.76198025    -1.02255512
O      -5.78747941     1.97559111    -6.03520339    -0.69573105     0.39517161     0.42557691
O      -9.75908981     6.77375278    -9.68116677    -0.12975415     1.38949565    -0.66122294
O      -9.84559265     6.72394083    -5.96050343     0.18563077     0.58011042     1.29661592
O      -3.91940648     2.36393248    -4.05036982     0.27760814     0.68893037     0.22742514
O      -3.88057552     2.35611320    -8.03984893    -0.00363790     1.55913454     0.68377083
O      -7.89413060     2.42932001    -4.12578230     0.63197398     0.08062217     0.61266332
O      -7.78964103     2.40391944    -8.00433096    -0.54174041     0.47017579     0.16061414
O      -3.88417850     6.37153582    -3.98046885    -0.23768356    -0.15432440     1.04097078
O      -3.98748266     6.33674168    -8.03805176     0.58646663    -0.00449117     0.77816491
O      -7.82155382     6.39949355    -4.00884595    -0.00360894    -1.11223453     0.66664922
O      -7.77343247     6.30616088    -7.97221852    -0.19595358     0.68979887     0.56924776
O      -3.88198074     4.24992406    -2.06652036     0.01887176     0.88983026     0.60066287
O      -3.83086007     4.52840806    -6.00382010     0.14692193    -0.21153290     0.90992620
O      -7.77637059     4.34249868    -9.99990916    -0.37559870     0.37022028     0.70010374
O      -7.93782800     4.38823112    -6.05919177     0.04876585     0.12897009     1.19123506
O      -3.84511406     0.04701431    -9.76300387    -1.33924858    -0.36035372    -1.26710356
O      -4.22357895     0.02266686    -5.89900148     1.22645150    -0.65589360    -0.26814507
O      -7.65604103     0.08673012    -5.96629907    -2.03134153    -0.26986095     0.17749402
O     -11.60081042     8.68918750    -9.85324249    -0.68227865    -0.17419993    -0.15227896
O      -1.97445383     4.11758581    -3.99513522     0.28181466     2.06655755    -0.35612277
O      -1.92354637     4.26385086    -0.03176197    -0.14948681     0.85241929    -0.28118334
O      -5.86001321     4.09527543    -4.00129798     0.19060184     0.39235484    -0.57967651
O      -5.82750045     4.16890840    -7.81241650    -0.59575032     1.42316455    -0.72078018
O      -1.88013621     0.29385747    -4.07202824    -0.29494735    -0.76589256    -0.36126182
O      -5.96507641     8.57154018    -7.84691496     0.57612991    -1.17508798    -0.02704322
O      -5.89661865     0.29035124    -3.95182772     0.03432397     0.50230851     2.24640919
O      -5.83893499     0.55380521    -8.10394373     0.04515928    -0.57673988    -0.78746138
