# total energy = -630.85415002 eV

CRYSTAL
PRIMVEC
        0.00285542     0.02004370    -7.95977623
       -7.82940539     0.00763210    -3.98158109
       -3.91729101     8.74642787     0.01461334
PRIMCOORD
56 1
Li     -3.81786082     2.16907049    -1.94006077    -0.06982040     0.15586959     0.11016033
Li     -4.04754398     1.97358638    -6.07233822     0.53481035     0.26289825     0.58172387
Li     -7.71245785     2.27553340    -9.95333613    -0.12927871    -0.21841820     0.28473309
Li     -7.83460061     2.43104434    -5.90743340     0.01785085    -0.15041816    -0.08546004
Li     -3.85917109     6.34828406    -1.94181084    -0.58387333     0.30742144     0.08614301
Li     -3.88493784     6.88861121    -5.69257445     0.08631012    -0.41870449    -0.60184774
Li     -7.77983545     6.79354715   -10.06045112    -0.38007886    -0.50065028     0.04806368
Li     -7.72198968     6.41899576    -5.89402721    -0.23757344    -0.09849545    -0.16864855
Ti     -2.02700695     2.32022288    -4.18375832     0.67733359     0.96381273     0.83740356
Ti     -5.90351277     6.83047047    -8.05298751     0.68959174    -0.13995615    -0.26118097
Ti     -7.78030940     4.39651137    -7.77492082    -1.47806614     0.05814762    -0.63547409
Ti     -7.85115752     4.33874876    -3.75720127    -1.20466859     0.45700104     0.89759508
Ti     -3.97381726     4.28552817    -7.67214017     0.01720941     0.45194167     0.26461937
Ti     -4.17546766     4.43744385    -3.74342404     1.40977603    -0.57549393    -0.77406850
Ti     -1.71756241     0.15323758    -2.18149166    -0.93797973    -0.87445277    -0.41997000
Ni     -5.95158806     2.27899989    -8.01339045     0.86637865    -0.79025347     0.88157401
Ni     -5.87609696     2.32893972    -4.08389855    -0.47043442    -1.62699571     0.62192047
Ni     -9.88712623     6.34979003    -7.77041677     0.63960286    -0.13588423    -0.33738074
Ni     -9.87602577     6.13381022    -3.86761256     0.28644277     0.89243053    -0.70634055
Ni     -1.93234724     2.12658093    -7.98107942    -0.68023253     0.96974206     0.29645248
Ni     -5.93321174     6.75133867    -4.04324673     0.06183043    -0.34976968     0.68960691
Ni     -1.99453556     0.02207485    -5.98266715     0.79494148    -0.15238783     0.23133971
Mo     -5.80342843     0.05078720   -10.16589685     0.28533734    -0.59949586     0.08848779
Mo     -9.70865039     8.67464257    -6.09663162    -1.19047739    -0.63688151    -1.66641879
O      -1.91214536     2.04247897    -2.06411716    -0.16393095    -0.73937307     0.73286133
O      -1.92720127     1.85922485    -6.01148893    -0.56778364    -0.09393330    -1.16668550
O      -5.89014896     6.82378441    -2.10734554    -0.07929301     0.53464395     0.93462206
O      -5.77218680     6.93066384    -5.89940363    -0.87633280     0.26132722    -0.31788003
O      -5.65755302     2.02632343    -9.87633072    -1.39428448     0.34772531    -0.85391410
O      -5.95789178     1.96020637    -5.98642728     0.21686573    -0.04819678    -0.12846375
O      -9.73397355     6.89258521    -9.89589858    -0.20822556     0.54635535     0.16818701
O      -9.85170999     6.77187756    -5.85177066     0.06443489     0.25971526    -0.21541202
O      -3.88529320     2.45502751    -4.14402986    -1.53278335    -0.15866443     0.46234124
O      -3.93325849     2.34576973    -7.83639015     0.04824207     0.38736985    -0.91192035
O      -7.91971987     2.34855193    -3.84424495     1.19099373     0.29332417    -1.16599807
O      -7.93329581     2.42050657    -7.97167220     1.11321612     0.16295719    -0.45256442
O      -4.01462031     6.32394237    -3.91913186     0.71196285     0.79379191     0.11546373
O      -4.00738368     6.34735944    -7.96192703    -0.31423217    -0.34285588     0.18954258
O      -7.96098691     6.28984679    -4.07344897     0.31746860    -0.07712477     0.81317624
O      -7.77582371     6.40445026    -7.87021202    -0.07693873    -0.17613215    -0.25970158
O      -3.91406866     4.46936495    -2.01094273    -0.08668003    -0.67923218     0.39624695
O      -3.82657459     4.53519373    -5.93893439    -0.28755987    -0.27764367    -0.65348272
O      -7.90767445     4.48861255    -9.95276530     0.23895122    -0.21669613    -0.25741406
O      -7.77313604     4.34633989    -6.03711443    -0.40299730     0.37225191     0.91537452
O      -3.91969751     0.03591058    -2.19972451    -0.68644861    -0.12881679     0.49848654
O      -7.95746149     8.60267170    -5.94769705     0.76831645     0.64429360     0.15150838
O     -11.66131750     8.73425527    -6.03452970     0.22919780    -0.10557585     0.22941978
O      -7.60004944     0.11354739    -9.79379019     0.04375497    -0.21198454    -0.58525498
O      -1.99744647     4.23858789    -4.05592312    -0.06296112     0.38196694     0.15467698
O      -1.96630748     4.17310552    -0.13913333    -0.68433376     0.13722000     0.38914882
O      -6.00106515     4.19177072    -4.10124756     0.96861515    -0.14627111    -0.00079902
O      -5.95169688     4.22166806    -8.02157597     2.04038738    -0.02638444    -0.16024306
O      -1.87605837     0.29789294    -4.03568336    -0.40812211    -0.33940430    -0.01008791
O      -5.95806785     8.65174872    -8.09153942     0.33129017     0.04115392     0.69533836
O      -5.99139771     0.34774872    -4.00118794     0.35232086     0.68590303    -0.91641674
O      -5.82647952     0.40338557    -7.97118242     0.05821675     0.30759038     0.98462978
