# total energy = -630.60876035 eV

CRYSTAL
PRIMVEC
        0.00285542     0.02004370    -7.95977623
       -7.82940539     0.00763210    -3.98158109
       -3.91729101     8.74642787     0.01461334
PRIMCOORD
56 1
Li     -3.93509815     2.09503693    -2.01953897     0.14329446    -0.01585610     0.50181649
Li     -4.03517350     2.14310986    -5.79256403    -0.10689884    -0.14888969    -0.69353998
Li     -7.75571186     2.10237436   -10.00936652    -0.31894134     0.12503956     0.27620298
Li     -7.82569501     2.35678412    -5.87720213    -0.01801315    -0.18604914    -0.05544604
Li     -3.88506758     6.31955975    -1.91352716    -0.31174997     0.47250543    -0.07800718
Li     -3.93352791     6.67699946    -5.84555481     0.16600969    -0.16876251     0.42837590
Li     -7.90332852     6.32887551    -9.88613712     0.29430934     0.52549689     0.00765879
Li     -7.78804611     6.44174829    -5.86141509    -0.10750483    -0.35000040    -0.22345112
Ti     -2.06689757     2.32705836    -4.08614020     1.21966766    -0.96516649     0.81439430
Ti     -5.82640549     6.75373628    -7.88550052    -0.54325361    -0.68159313    -1.33893916
Ti     -7.81105462     4.38577604    -7.69140815    -0.33464700    -0.19679318     1.19516549
Ti     -7.84545461     4.31904625    -3.66678398     0.13061038     0.67066140    -1.30944350
Ti     -3.96005804     4.35354411    -7.58076244     1.16185793     0.27295192    -0.62807081
Ti     -4.05129358     4.44938133    -3.79594627    -0.94647487     0.67248771     0.88440564
Ti     -1.74322098     0.00524200    -2.10258198    -0.86523373    -1.21453491    -1.41720991
Ni     -5.89315463     2.37875399    -8.04803691    -0.01609733     0.08744620     0.04627123
Ni     -5.92488638     2.11964326    -3.97897209    -0.21473549    -0.12932732     0.49729158
Ni     -9.77898946     6.59266992    -7.77556114    -1.30170681    -0.52813491    -2.33161874
Ni     -9.83045341     6.46215621    -3.97687607    -0.05184262     0.38797535    -0.20235149
Ni     -2.04317369     2.20243967    -7.89197310     0.50049737     0.11171899    -0.61019922
Ni     -6.00980973     6.68352689    -3.92932491     0.58844366    -0.40797012    -0.49661912
Ni     -1.93640677     0.03820548    -6.05871861    -0.12867228    -0.51244091     0.52725108
Mo     -9.75723181     8.71265956   -10.23656174     3.38755740     0.40636487     0.52681217
Mo     -9.63875042     8.60295012    -6.38374260    -1.92484837     1.22412570     0.22198846
O      -1.95953100     1.86635945    -2.05515830     0.14909241     0.82593559     0.11265314
O      -2.00920511     1.89816423    -6.01576304    -0.43783336    -0.32397837    -0.16295092
O      -5.89632163     6.69205713    -1.97392942    -0.10872153     0.99165856     0.40248538
O      -5.89498385     6.93442135    -5.96372845    -0.09687223     0.02420184     0.43963126
O      -5.83938811     2.04367909   -10.04176012    -0.07314153    -0.42409187    -0.99629374
O      -5.91425322     1.80097031    -5.81201309     0.34698137    -0.01080735    -0.93195893
O      -9.71135421     6.95175258    -9.64765190    -0.74486131    -0.56655940     0.10050874
O      -9.75453522     6.69248732    -6.00549438    -0.16378787     0.84680257     1.25130302
O      -3.98819494     2.41671787    -3.89598813    -0.13151030    -0.06793959    -1.21648528
O      -3.90369188     2.47121726    -8.01192905    -0.39952351     0.35346246     0.83272852
O      -7.97446757     2.41904657    -3.95116469     0.58326700    -0.49678119     0.01273663
O      -7.91048148     2.51675632    -8.09216335     0.42124772    -1.23996318     0.71420145
O      -3.87166912     6.44045569    -3.87959871     0.52710827    -0.04458008    -0.14319565
O      -3.96389303     6.43886178    -7.81144901    -0.03349581    -0.31140999    -0.67512640
O      -8.00061306     6.27731702    -4.06170101     0.57154199     0.49676339     1.25979640
O      -7.96466452     6.25845547    -7.93310045     1.57044000     0.86901288     0.48668139
O      -4.03594537     4.48368998    -2.04138798     0.20978612    -0.26491929     0.42165629
O      -3.90443641     4.63520610    -5.85184412    -0.08396826    -0.78346377    -0.19066932
O      -7.92455968     4.36133633    -9.88470594     0.20853145     0.26502759     0.34882387
O      -7.92181290     4.34669720    -5.89986672    -0.21157996    -0.28307580    -1.48131281
O      -7.77265675     8.67416501    -2.07462985    -1.75388963     0.77309747     0.15943511
O      -7.91145449     8.61687458    -6.20533619     0.15740626     0.42686679     0.22854126
O     -11.64592599     8.64498736    -5.97883500     0.35029289    -0.00617591    -0.16108322
O      -7.59712506     0.07004031   -10.07925717    -1.33926812     0.00097758    -0.18242336
O      -2.05648392     4.15425576    -3.96511077     0.23014321     0.01204042    -0.22255857
O      -9.86216751     4.65455300   -11.83231305    -0.10536691    -0.55895804    -0.47060779
O      -5.97947639     4.80482036    -4.15198704     0.04832214    -0.20235686     0.88784839
O      -5.88454936     4.34623810    -7.83757139     0.01865577    -0.04703336    -0.38870178
O      -1.94847114     0.09736542    -4.14423058     0.00888795    -0.09496128     1.32240435
O      -5.98038872     8.54192986    -8.06336446     0.58499399     0.47725112     0.66664379
O      -9.58900516     8.52887112    -4.07155811    -0.69554507    -0.50277058    -0.87750117
O      -5.87198376     0.55923773    -8.17401474     0.00592352    -0.22579312     1.89276933
