# total energy = -630.67276296 eV

CRYSTAL
PRIMVEC
        0.00279571     0.02951795    -7.98606283
       -7.83802570     0.01298533    -3.99532603
       -3.92160916     8.71933433     0.00634407
PRIMCOORD
56 1
Li     -3.85906969     2.26309723    -1.78246282    -0.17661524    -0.17079650    -0.21204609
Li     -4.06639549     1.97164932    -6.06122182     0.38640200    -0.11763581     0.41301153
Li     -7.67400194     2.49971505    -9.95507800    -0.83970867     0.11645598    -0.09991918
Li     -7.87159245     2.35079136    -5.96243015     0.03378782    -0.05961975     0.16341639
Li     -3.99041309     6.40493666    -1.99178593     0.38654454    -0.07160987     0.01614297
Li     -4.04373905     6.31747472    -5.89212002     0.54425193     0.22128259     0.15398870
Li     -7.75822119     6.41206835    -9.89394874    -0.53430853     0.07252328    -0.25026476
Li     -7.85440414     6.66401146    -5.87967932     0.52931404     0.16941133     0.13095741
Ti     -1.99252860     2.16007290    -4.05009365     1.23058907    -0.65213098    -0.30562111
Ti     -5.83376834     6.79102746    -8.00903176     0.21436395    -1.80019253     1.03088616
Ti     -7.88409591     4.51331228    -7.64920805     0.49218525    -1.43477609    -1.31391797
Ti     -7.90086223     4.50102590    -3.75417407     0.56089609    -1.42376749     0.49103751
Ti     -3.84180234     4.26529562    -7.64877548    -0.61372166    -0.27762731    -0.40284041
Ti     -3.88637403     4.24105873    -3.65678059    -1.17806672     0.21128101    -1.45435596
Ti     -6.12024638     8.72073499    -2.14130676     0.49843781     0.79000340    -1.36661315
Ni     -5.93524249     2.35048268    -8.05285591     0.33446545     0.55232969     0.69624836
Ni     -5.81891952     2.30081742    -4.08710165    -1.28157108    -0.12983892    -0.19155398
Ni     -9.79046099     6.55421942    -7.94843893    -0.03000255    -0.07089067    -0.24019207
Ni     -9.82561225     6.45486379    -4.06317310    -0.07661060     0.83889973     0.18527426
Ni     -1.84611370     2.04983426    -7.87254860    -0.67316809     0.61008907    -1.11677951
Ni     -5.79002869     6.31213700    -3.95071038    -0.45501336     1.66117165    -0.63912797
Ni     -2.01017413     0.03004846    -6.03874433     0.09641884    -0.87516839     0.93136447
Mo     -5.99099469     0.14519880   -10.23749518     0.37974239    -0.32606370    -1.73533869
Mo     -9.88414508     8.61561289    -6.37177973     0.60010625     1.91780282     0.11446055
O      -1.97686286     1.95462991    -1.91649894     0.36854419    -1.03681992    -0.34078872
O      -1.90089196     1.92479869    -6.02267799    -0.25563554    -0.77081426    -0.21823114
O      -5.84505223     6.76611261    -2.07963558    -0.58985206     0.03913744     0.77322820
O      -5.85898285     6.77726775    -5.96194026    -0.15358968     1.13680444    -0.40221525
O      -5.88363553     2.13200445   -10.12451272     0.97447550    -0.69603310     0.52428507
O      -5.97911512     1.98874936    -6.02741541     0.74649600    -0.56374586     0.72094900
O      -9.73755090     7.05954854    -9.79040380    -0.38767673    -0.48547303     0.46986535
O      -9.82135890     6.77713200    -6.11366090     0.09971842    -1.34884327     1.24337740
O      -3.86600152     2.20312038    -4.01044949    -1.21683694     1.74431810     0.00908925
O      -3.81589316     2.34376200    -7.87343722    -0.17135783     1.05908430    -0.23830327
O      -7.90309629     2.54776984    -4.06116124     0.98889846    -0.83102733     0.59881497
O      -7.92019020     2.46045498    -7.93811675     0.96538990     0.20813261    -0.32027990
O      -3.79723339     6.17897993    -3.92938372    -0.39512520     0.57073002    -0.25436974
O      -3.99777381     6.45303655    -8.03031168     1.04510505    -0.95901494     0.55926664
O      -7.88422522     6.38336006    -3.95335898     0.18583733     0.56871706    -0.13058624
O      -7.79676594     6.45675315    -7.87955226    -0.51883760    -0.58165290    -0.67211559
O      -3.79965110     4.32331104    -1.93874200    -0.17209558    -0.02200973     1.05575487
O      -3.82472652     4.41698813    -5.90377686    -0.23836401    -0.07872766    -0.53457202
O      -7.83093127     4.42291843    -9.97060938    -0.02734908     0.34302106     0.62101258
O      -7.74581810     4.40208011    -5.93782864    -0.33047637     0.30371621     0.22662405
O      -3.98556693     0.09696412    -2.05484070    -0.19301115     0.09336432     0.33347054
O      -7.93782524     8.68528249    -6.11505481    -1.21155046     0.01554743    -0.12075460
O     -11.69528244     8.66470232    -6.24075676     0.86012786    -0.09587137     0.40996033
O      -7.72549455     0.20760169   -10.03503521    -0.74105015    -0.32830522    -0.08691720
O      -1.96279643     4.11839027    -3.98720703     0.14615934     0.32484377     0.14900811
O      -9.77074537     4.62327991    -3.95658059    -1.60161694     0.05079374    -0.39896865
O      -5.91604092     4.44612447    -3.96361483     1.62691129    -0.90739718    -0.17604407
O      -5.86431892     4.28330527    -8.02044348     0.12004584    -0.15273788     0.26039377
O      -2.09311868     0.19525429    -4.09609559     0.74946231     0.26819079     1.17140659
O      -5.90073584     8.54198212    -8.10915583     0.27006950     1.44957392     0.24199207
O      -9.72387144     8.65070066    -4.08300156    -0.79007031    -0.16326864     0.65163511
O      -5.79111604     0.53365262    -8.08489092    -0.49549147     0.29149106    -1.22865896
