# total energy = -630.43407414 eV

CRYSTAL
PRIMVEC
        0.00279571     0.02951795    -7.98606283
       -7.83802570     0.01298533    -3.99532603
       -3.92160916     8.71933433     0.00634407
PRIMCOORD
56 1
Li     -3.95832959     2.01184147    -1.85450949    -0.23091442     0.57712669    -0.19065541
Li     -4.10311549     2.38005423    -6.04698150     0.77925947     0.25292061     0.50418616
Li     -7.59949410     2.28602061    -9.97799951    -0.86826609     0.25149337    -0.05323332
Li     -7.84685249     2.15525175    -5.78545534    -0.29838781     0.11761839    -0.74924561
Li     -3.93972892     6.68893310    -2.03264281    -0.37621795     0.27674481     0.08345971
Li     -3.83938847     6.45486437    -5.98216605    -0.37692041    -0.18560767     0.53888333
Li     -7.83770698     6.51697413    -9.91215467     0.04877709    -0.29326246    -0.12986064
Li     -7.74926038     6.64052054    -5.78465310    -0.42173654     0.20339047    -0.63733037
Ti     -1.98718414     2.21233669    -4.18326110     0.08524770    -0.63290956     0.80326825
Ti     -5.84085414     6.60964535    -7.86728058    -0.56571641    -1.31657998    -0.51912979
Ti     -7.84346112     4.33871403    -7.60954279     1.25109759     1.12389044    -1.08921475
Ti     -7.80528297     4.28005379    -3.71980874    -0.20823356     0.92409651    -0.16960509
Ti     -3.72255194     4.40670587    -7.84471301    -1.54486579    -0.08823418    -0.14286443
Ti     -4.01349186     4.37435026    -3.58898090     0.53771612     0.30533076    -0.92540950
Ti     -2.15290929     0.09555217    -1.85132190     1.03589692     0.49328186    -0.25546634
Ni     -5.84619889     2.16969892    -7.86172610    -0.15493442     0.34233726    -1.73731120
Ni     -5.88971609     2.27103295    -4.06167596     0.53184235    -0.30777682     0.10721372
Ni     -9.70213528     6.39021748    -7.96609512    -1.24998807    -1.35546683    -0.53897347
Ni     -9.78703777     6.53222774    -4.15174788    -0.47089653    -0.00637665     0.62533801
Ni     -1.92334029     2.35627454    -8.01821946    -0.23732963    -1.18881084     0.22727029
Ni     -5.99742467     6.43734983    -3.96872477     1.13831822     0.82238770    -0.28797976
Ni     -1.99514843     0.20846565    -6.01628250     0.20574459    -0.89908266     0.49223618
Mo     -9.88981940     8.62184063   -10.31788570    -0.14204533     1.30227424    -0.85818352
Mo     -5.89478557     0.12973913    -6.36540665     0.49874601    -0.21065892    -0.39857114
O      -1.96960497     2.07399000    -1.92191015     0.07322672    -1.22301956    -0.52222322
O      -1.90987849     2.08049422    -6.05586238    -0.34913782    -0.60841939    -0.27551519
O      -5.90563769     6.91745288    -1.87097647     0.00686241    -0.60081156    -0.77851794
O      -5.80036997     7.03245244    -5.92929673    -0.81478134    -0.05750814     0.07100979
O      -5.87321558     1.78839733    -9.71507606     0.64103044    -0.90153156    -0.30873287
O      -5.96077934     2.13753600    -6.07831189     0.26848775    -1.34460714     0.90876762
O      -9.77550594     6.76351244   -10.13626624     0.61437573    -0.53496563    -0.23081519
O      -9.90712056     6.78335086    -6.04769099     1.02864080     0.42646588     1.12063089
O      -3.92171347     2.37888822    -4.00485357     0.36666701     0.85348338    -0.21987337
O      -3.93869512     2.42967638    -7.91235503    -0.24166885    -0.16849344    -0.20233082
O      -7.80472536     2.31904069    -3.97666896    -0.00448704     0.28878224     0.59454010
O      -7.75086499     2.51742848    -8.13990285    -0.43390126    -1.17748178     1.29651791
O      -4.03449681     6.29597106    -3.93253271     0.25475433    -0.89017550     0.10293140
O      -3.93354982     6.36954290    -8.06074711     1.04776723     0.59555177     0.10600427
O      -7.88396978     6.29929446    -3.95715473     0.26038954    -0.30817426     0.01679733
O      -7.82675238     6.32726609    -7.87283331     0.07363410     0.14880133    -0.07760990
O      -4.23496081     4.20246205    -1.87424914     0.42489021     0.24412423    -0.41668416
O      -3.81695217     4.46182986    -6.10880294    -0.24193671    -0.25996307     0.85804990
O      -8.01274208     4.34946749    -9.95963163     0.61797668     0.32218999    -0.72110621
O      -7.83841626     4.26515537    -5.89478093     0.12399593     0.15235541     0.63121701
O      -3.90547309     0.04915506    -2.17851159    -1.24027222    -0.33162641     0.39125072
O      -4.05037218     0.06259774    -5.95860967    -1.92016996     0.27693000    -0.64357277
O      -7.74423503     0.10215513    -6.07774036     1.15634656     0.11600399    -0.29715961
O     -11.63130179     8.59508523   -10.15506048     0.14986034     0.67197476     0.15839254
O      -9.77167213     4.36495396    -8.00408227    -1.39582599     0.18784095     0.79709136
O      -1.90696394     4.18565290    -0.29318724     0.37412304     0.67058795     0.71391005
O      -5.88912813     4.16873858    -4.07327258     0.04537371     0.14672620     0.32286397
O      -5.91705114     4.69344106    -7.92885849     0.31793891     0.48653343     0.23090837
O      -1.94300766     0.35246860    -4.06739753     0.32491690     1.05945110    -0.23067036
O      -5.94654814     8.66450144    -7.93846961     0.07229650     0.32889863    -0.06700758
O      -5.84790443     0.39112760    -4.14405461    -0.22300740    -0.43382350     1.25136032
O      -9.68641572     8.14182127    -8.15918603    -0.22552798     1.52585095     0.73054427
