# total energy = -630.74569332 eV

CRYSTAL
PRIMVEC
        0.00279571     0.02951795    -7.98606283
       -7.83802570     0.01298533    -3.99532603
       -3.92160916     8.71933433     0.00634407
PRIMCOORD
56 1
Li     -3.81475707     2.05901066    -1.93355477    -0.73103322     0.36370090    -0.24145975
Li     -3.85920506     2.39521193    -6.04849255    -0.29052886    -0.26284342     0.28681366
Li     -7.76069006     2.14910117   -10.00230253    -0.69575078     0.20603661     0.08128271
Li     -7.69970528     2.17308113    -5.91856765    -0.55644843     0.22708779    -0.21811360
Li     -4.02154906     6.53328179    -2.04822089     0.41380774    -0.05251112     0.98356826
Li     -3.97845551     6.52124572    -5.94566158     0.50747034    -0.11525947     0.45598182
Li     -7.90241401     6.58274087    -9.85014940    -0.12442444    -0.46409884    -0.60395557
Li     -7.70265627     6.52666076    -5.72291893    -0.44531304     0.05723616    -0.65333787
Ti     -1.98432854     2.19563474    -4.05399321     0.21602149     0.38666079    -0.59670139
Ti     -5.91056540     6.67586375    -7.95621031     0.57042178     0.64522804     0.47652631
Ti     -7.84404834     4.38647946    -7.73842068     0.56625069     0.17585719    -2.43447362
Ti     -7.75066332     4.33232038    -3.73528632    -1.31209484     0.35896793     1.89698151
Ti     -3.79388202     4.35574508    -7.76787014    -0.00314685     0.81006148     0.06251722
Ti     -3.90726232     4.50363251    -3.69206686    -0.30126156    -0.95831465     0.19855865
Ti     -6.05964042     8.68444610    -2.16284324     0.27428499    -0.34970175     0.42319302
Ni     -5.89192422     2.46921027    -7.95983076     0.54550738    -0.36537293    -1.06641964
Ni     -5.91776819     2.19773116    -4.06262725     0.74193918    -0.06713742     0.10617118
Ni     -9.77412627     6.51235478    -7.89925038     0.13544802     0.39726289     0.40935340
Ni     -9.79805014     6.47255911    -4.10180266     0.09194034     0.85819556     0.06251025
Ni     -1.92967951     2.03934774    -8.00129708    -0.07525135     0.18944718     0.14516386
Ni     -5.91423528     6.60205178    -3.84717269     0.12106112    -0.31605873    -1.88477038
Ni     -5.92138152     8.68063418    -5.97115035     0.38365445     0.17602208    -0.44114877
Mo     -9.85704337     8.74986800   -10.25836754    -2.45551055     0.94218693    -0.97911670
Mo     -9.84730838     8.67431379    -6.36777531     2.03527074    -1.08349571     0.54747191
O      -1.83907144     1.86007683    -2.03268221    -0.44829416    -0.14562574     0.22253881
O      -1.95912522     1.93626931    -6.03744294    -0.32297332    -1.32948583     0.04229105
O      -5.97593659     6.75186366    -1.98192532     0.38121518     0.12824948     0.52089481
O      -5.78768085     6.82493910    -5.90074550    -1.11407345     0.47476544    -0.50176924
O      -5.93697507     1.97609626   -10.24095130     0.76774714     0.23061846     1.24776281
O      -5.75638173     1.94384169    -5.84489629    -1.01699226    -0.56846344    -1.15178870
O      -9.77528150     7.03667495    -9.69268200    -0.26937518    -1.41968650     0.29991957
O      -9.71096008     6.69198987    -6.07526611    -0.41752859     0.79651765     0.64721938
O      -3.88728019     2.44738378    -3.95380522    -0.33571112    -0.07687909     0.05358757
O      -3.91793999     2.45902889    -8.09177376     0.12755763     0.08343959     0.64708793
O      -7.89407940     2.37207820    -4.03890421     0.54331736     0.59777429     0.19661112
O      -7.83859778     2.45642930    -8.02363299     0.40121698    -0.78026633     0.43283069
O      -3.80977277     6.43372951    -3.86922790    -0.30792851    -0.46988467    -0.95252711
O      -3.96368811     6.36104281    -7.85492625    -0.35854538     0.27133696    -0.93508304
O      -7.83851530     6.38231131    -3.87675880    -0.50707289    -0.57510387    -0.16286576
O      -7.85958675     6.37446303    -7.98944203     0.41020091     0.05524383     0.54550991
O      -4.05012090     4.55891250    -1.93376977     0.38985071    -0.33229512    -1.10305602
O      -3.80946221     4.39036739    -5.99065241    -0.54658296    -0.00013709     0.07184171
O      -8.02002453     4.37926383    -9.90452822     0.42582716     0.08254890    -2.40379744
O      -7.91743884     4.44462525    -6.04903337     0.22405709    -0.05953673     3.02777439
O      -4.01900823     0.03015020    -2.10963307     0.81445669     0.41408678     0.21324712
O      -7.96870211     8.57915427    -6.05157925    -0.78914864     0.22655914    -0.23563962
O      -3.81353003     8.48115208    -1.92667324     1.02583163     1.19097617    -1.09954718
O      -7.80143916     0.07195605   -10.03006135     1.01430016    -0.03702146    -0.29294287
O      -1.95635120     4.09999114    -3.91137882    -1.11355334     0.01091456    -0.19991048
O      -9.78579544     4.66969574    -4.03711868     0.47950479    -0.52409158    -0.33486956
O      -5.91559558     4.60711888    -4.09229687     0.93802362     0.00784035     0.55549669
O      -5.92446052     4.43708416    -8.15331299     0.56592044    -0.41159104     1.12789786
O      -1.99638974     0.07361611    -4.05071487     0.08278734     0.78238224     1.02058045
O      -5.94316797     8.56049155    -8.11113022     0.01426500    -1.01906356     0.35599067
O      -9.81362357     8.52622847    -4.09126643     0.04398752    -0.60906597     0.67838510
O      -5.80812528     0.53304946    -8.11647105    -0.66651848     1.33777913     0.37793825
