# total energy = -630.99442838 eV

CRYSTAL
PRIMVEC
        0.00279571     0.02951795    -7.98606283
       -7.83802570     0.01298533    -3.99532603
       -3.92160916     8.71933433     0.00634407
PRIMCOORD
56 1
Li     -3.96545373     2.11449729    -2.08592404    -0.21152152     0.28829965     0.86906366
Li     -4.01764795     2.29397533    -6.08187839    -0.22039676     0.02040653     0.06822461
Li     -7.80478986     2.32326101   -10.01210944    -0.28360341     0.07194333    -0.09292888
Li     -7.90341959     2.43240545    -5.96846185     0.16959381    -0.50880516    -0.05470243
Li     -3.85207221     6.51927668    -1.94350724     0.00557601     0.05051599    -0.15192062
Li     -3.91533856     6.45660196    -5.73799925    -0.12431362     0.00353119    -0.90847899
Li     -7.81020981     6.45403992    -9.87684557    -0.53617668    -0.19264347     0.14544004
Li     -7.82709628     6.53691153    -5.84757890     0.13190308    -0.07856801    -0.61499691
Ti     -2.10541850     2.07597446    -4.16428919     1.60259380     0.06365816     0.17993606
Ti     -5.72280183     6.55059791    -7.91722760    -0.88737091    -0.34104765     0.20445791
Ti     -7.84587782     4.34296778    -7.75717499     0.38421789     0.81927215    -0.20689788
Ti     -7.70135045     4.45070397    -3.79381212    -1.18186404    -1.43762331     0.96665076
Ti     -3.64800171     4.42338746    -7.74861636     0.13827274     1.26937498     0.92105339
Ti     -3.84829249     4.43722106    -3.75470131     0.07115547     0.29495787     0.81165254
Ti     -6.15083671     8.68307568    -2.08247262    -0.22111312    -1.51929628     0.20819936
Ni     -5.86243707     2.49205300    -8.09498607     0.20447354    -0.63498724     0.19883580
Ni     -5.96574644     2.18076731    -4.04443851    -0.22136769    -0.00475505    -0.70249873
Ni     -9.83223139     6.65432165    -7.84178644     0.21472297    -0.18816001     0.00896361
Ni     -9.69786054     6.67655432    -3.99350027    -1.35123444    -0.59858695     0.48363327
Ni     -1.93165951     1.99915365    -8.18020254    -0.28335409     0.65618026     2.40597342
Ni     -5.90879618     6.50401999    -3.87369747     0.90465139     0.40790534    -0.59356743
Ni     -5.99772778     8.67372404    -5.99539216     0.42836530    -0.53316939    -0.61606574
Mo     -9.94427921     8.67696634   -10.12145913    -1.96306091    -1.33479678    -0.24822912
Mo     -5.90033138     0.03029834    -6.36359039     0.64830774     0.40200147    -0.86305584
O      -1.98840300     1.81203598    -1.97933487     0.17141065     0.31677176    -1.12616650
O      -2.04279609     1.75801251    -6.03381320     0.01304327     1.15733214    -0.51253713
O      -5.85372963     6.79129304    -1.87989039    -0.26514654    -0.38039202    -1.25354810
O      -5.90667179     6.87439351    -5.99272730    -0.30613744    -0.77613374     0.47103077
O      -5.86529210     1.92968381   -10.20366156    -0.39770237     0.44653296     0.61672737
O      -6.01323183     2.04545884    -5.91448555     1.05355734    -0.97695935     0.08524790
O      -9.81906226     6.77712338    -9.66185367    -0.13461335     1.19685035    -0.66293218
O      -9.68158854     6.81728960    -5.98973729    -0.76300232     0.34459573     0.05464845
O      -3.95494193     2.36448620    -3.91247562    -0.31580426     0.15271456    -1.10298252
O      -3.82399423     2.64002654    -8.10068721    -0.74040157    -2.30994614    -0.01071845
O      -7.97245985     2.45034878    -4.03272426     0.90392040    -0.36292418     0.16570628
O      -7.81176888     2.39177284    -7.99980460     0.18851242     0.06009525    -0.40955178
O      -3.92399263     6.43913797    -3.96545397     0.07176706    -0.94552105     1.10465699
O      -3.86730061     6.46336900    -7.96613535     0.43731460     0.02149959     0.30129940
O      -7.87535908     6.36405942    -3.95422365     1.30233601     0.58379137     0.33508171
O      -7.96239931     6.28544745    -7.97531526     0.53245805    -0.24266314     0.46975055
O      -3.80519548     4.56788086    -1.96568481    -0.43118672    -0.23793506    -1.25229207
O      -3.85870857     4.49197400    -5.93472374     0.02897581    -0.32671816    -0.61927231
O      -7.91542793     4.28479506    -9.99946167     0.46894803     0.35612290    -0.55239647
O      -7.86930837     4.27268205    -6.00123958    -0.20116650     0.70398455     0.46391205
O      -8.00373684     8.61902272    -9.91908199     1.85044173     0.44661566    -0.60977412
O      -4.03956809     0.04306072    -6.11125247    -0.15067710     0.13365297     0.15651059
O     -11.57398132     8.62263020    -6.19263182    -0.69046350     0.09119686     0.64967932
O      -3.92084896     8.63356924    -6.06808705     1.06648748     0.30974864     0.28479658
O      -1.94195866     3.93648036    -3.94815012    -0.94017084     0.36150905    -0.40375105
O      -9.69607703     4.74905347    -3.97440574    -0.12879650     0.38675519    -0.36313504
O      -5.83156666     4.46580122    -4.01689218     0.41905910    -0.05853461     0.15211470
O      -5.84518081     4.49595660    -7.93438692    -0.04383750    -0.23163196    -0.42732701
O      -1.92506007     0.07811511    -4.08498648    -0.74201605     0.44958361     1.60690042
O      -5.93482231     8.40713149    -8.01461811     0.04562641     0.87180295    -0.26287442
O      -9.80642636     8.69087192    -3.97880512     0.23036801    -0.21429853    -0.64747792
O      -5.85576125     0.59003223    -8.18731265     0.02614865     1.04020825     0.78935664
