# total energy = -630.51053739 eV

CRYSTAL
PRIMVEC
        0.00279571     0.02951795    -7.98606283
       -7.83802570     0.01298533    -3.99532603
       -3.92160916     8.71933433     0.00634407
PRIMCOORD
56 1
Li     -3.90538365     2.34401736    -2.03461161    -0.21309628    -0.16676086     0.72995737
Li     -4.02802382     2.11341232    -5.97218115     0.11691787    -0.09954446    -0.01652617
Li     -7.87112481     2.46496468    -9.96345092     0.12053869    -0.49449534    -0.44561801
Li     -7.82840058     2.27884812    -6.06191887    -0.04564090    -0.09305149     0.49138827
Li     -3.96120960     6.27793193    -2.00122947     0.43227048     0.33888951     0.38330490
Li     -3.88530393     6.45798397    -5.84874383    -0.09791608     0.04006439    -0.09387753
Li     -7.54843553     6.09400268    -9.96126447    -1.10094074     0.80327291     0.05816254
Li     -7.77889256     6.71654310    -5.72028300     0.05297807     0.02752292    -0.77386464
Ti     -1.96532734     2.15482333    -4.05576316    -0.23936714    -1.25651792    -0.90634998
Ti     -5.88304889     6.53587999    -8.04583600     1.19279979    -0.31908038     0.83967173
Ti     -7.99115525     4.42823755    -7.69194244     1.78732893     0.12385878    -0.45494077
Ti     -7.91575069     4.37141240    -3.81865287    -0.19595045    -0.32519323    -1.15711462
Ti     -3.80872551     4.33356860    -7.64116497    -1.01344757     0.34896300     0.04775363
Ti     -3.91595200     4.33840821    -3.78515849    -0.68412429     0.58376376    -1.02520009
Ti     -6.04216307     8.69571274    -1.99826690    -0.94304406     0.12427321    -1.03093273
Ni     -5.91884801     2.38831569    -7.97397703     0.85260669     0.56062524    -0.00413693
Ni     -5.93629060     2.30876221    -4.00111395     0.12850159    -0.19508218    -1.59226882
Ni     -9.84338876     6.65117370    -7.88445988     1.37127925    -0.42817192    -0.15289962
Ni     -9.70492533     6.62176535    -3.84555871    -0.70973313    -0.93979785    -0.81843251
Ni     -1.90538474     2.03053410    -8.12118982    -0.58507588     0.28708271     1.17524808
Ni     -5.90227487     6.44143220    -4.03647991     0.88704766     0.54455224    -0.27411210
Ni     -1.89596668     0.03327522    -5.97438835    -0.41850480     0.24197490    -0.22644023
Mo     -5.93941720     0.06206838   -10.23360778     0.23898181    -1.88474020    -1.13973684
Mo     -9.85402659     8.66353882    -6.36909290     2.31129462    -0.36932407     0.11754822
O      -1.99327362     1.98557820    -2.06094087     0.84118539    -0.40004292     0.60419019
O      -1.92165039     1.92888058    -6.09127288    -0.15175635    -0.63019788     0.14734995
O      -5.86030546     6.75555220    -2.09201378     0.26350518    -0.36649938     0.22979713
O      -5.76814490     6.93270456    -5.96935907    -0.70388755    -0.42274779     0.65167542
O      -5.84045950     1.87237394   -10.14974432    -0.09982286     2.54943523     0.63615477
O      -5.99448872     1.99123547    -5.90814565     0.50379987    -0.23559706     0.16047365
O      -9.75564539     6.92871129    -9.65898686    -0.14664802     0.11122942    -1.11783206
O      -9.66232868     6.73766469    -6.10633823    -0.76407344     0.63383533     1.49830589
O      -3.93154602     2.37898529    -3.93399803     0.06973225     0.06363035    -0.85158027
O      -3.98878807     2.46903952    -7.91381629     0.47763819    -0.29869776    -0.61789474
O      -7.85456457     2.41035626    -4.08340262    -0.20563179     0.16740053     0.15173345
O      -7.83297958     2.48243190    -8.07883365    -0.23019973    -0.29253819     0.95656531
O      -3.79890385     6.32764518    -3.89142846    -1.13436595    -0.16365376    -0.46663083
O      -4.01919731     6.33911303    -7.96858820     1.20075638    -0.21467058     0.05813289
O      -7.81356872     6.39012249    -3.88136075     0.22944219    -0.57781704     0.18352005
O      -7.72275646     6.31923900    -7.96203193    -1.75891633     0.38938177    -0.64925741
O      -3.89912010     4.35893011    -2.04451533    -0.27535532    -0.17090604     0.91263323
O      -3.99603364     4.43263210    -5.89475958     0.22567655     0.07560457    -0.15818238
O      -7.89693481     4.31244737   -10.06225228     0.52847902     0.33214213     0.86995629
O      -7.87181253     4.61848035    -5.98441593    -0.40524450    -0.77992147     1.16424305
O      -3.94578815     0.04230755    -2.00717706     0.32087036     0.02698002    -0.05012690
O      -4.09766818     0.14846018    -6.12805779     0.72260426    -0.62663770     0.30435644
O     -11.59277100     8.61962421    -6.12712674    -1.81840877     0.46301851     0.54313009
O      -7.70763302     0.05728279   -10.04893354    -0.31474721    -0.15033816    -0.32224424
O      -1.94749656     4.18367828    -4.10107852    -1.27375730    -0.70236851     0.11199277
O      -9.85349579     4.74573302   -11.84845437     1.27934138     0.45177528    -0.56861042
O      -5.93839282     4.36587091    -4.13529300     0.34495048     0.19810891     0.72069081
O      -5.92216787     4.34878340    -7.93565893     0.11547521     0.10054781    -0.48337718
O      -2.00147932     0.23221895    -4.01332439     0.38380133     0.51838017    -0.03364305
O      -5.89791722     8.38114241    -8.13039699     0.40164751     1.06089654     0.84265833
O      -9.61293079     8.44936563    -4.11095404    -0.96641270     0.28509937     1.44415709
O      -5.79524400     0.50416703    -8.12159792    -0.77416310     0.98995284    -0.65235262
