# total energy = -630.91079624 eV

CRYSTAL
PRIMVEC
        0.00279571     0.02951795    -7.98606283
       -7.83802570     0.01298533    -3.99532603
       -3.92160916     8.71933433     0.00634407
PRIMCOORD
56 1
Li     -3.90816441     2.32439280    -1.90651089     0.04269432    -0.39249957    -0.07415402
Li     -4.00608098     2.33257008    -5.94125290     0.10950025    -0.10941459    -0.15670406
Li     -7.70328362     2.51017626   -10.03826451    -0.53059513    -0.63512968     0.23891287
Li     -7.84544434     2.02659424    -5.92395580     0.38418966     0.09541781    -0.04272307
Li     -4.04175078     6.34651963    -1.98107255     0.09304729     0.29804939    -0.10561183
Li     -3.99802424     6.55297125    -5.94173557     0.38860094    -0.32519358    -0.02617664
Li     -7.89785179     6.51944331    -9.96293332    -0.33624130    -0.24602471    -0.08577226
Li     -7.98254291     6.37307314    -5.92572757     0.37416898     0.29909595     0.35451719
Ti     -1.83268371     2.22816440    -4.08970333    -0.72947455    -0.68491781    -0.20470175
Ti     -5.93548620     6.74259795    -8.05715534     0.78812246    -1.03883808     1.01114280
Ti     -7.76646571     4.43591133    -7.74490403    -0.00575928    -0.93454496    -0.46741571
Ti     -7.69638208     4.37179771    -3.83091474    -0.30071253     0.77934271     0.32704856
Ti     -3.81962096     4.37115519    -7.83061660     0.48354749     0.06548074     1.80347894
Ti     -4.03372613     4.32651207    -3.76386018     0.45372565     0.15704911    -0.69991872
Ti     -5.94315538     8.72140188    -2.08128329     0.11918384    -0.57260095    -1.23672427
Ni     -5.75597176     2.45401268    -8.00442963    -1.45247800    -1.94118224     0.15278750
Ni     -5.86178462     2.13423028    -3.93929892    -0.08693127    -0.46140088    -1.05435127
Ni     -9.85103184     6.61019998    -7.80816664    -0.40303409    -0.05070151    -1.52952719
Ni     -9.89105058     6.49072684    -3.97628795     0.32294763    -0.45158703     0.38677561
Ni     -1.88325287     2.17398612    -7.95686891     0.23411864    -0.27330085     0.29646438
Ni     -5.91751651     6.73433123    -4.12883570     0.10798381    -0.65483617     1.30856425
Ni     -5.88009836     8.63630232    -6.07005337     0.08892293    -0.91802469     0.65756383
Mo     -5.92377251     0.06477773   -10.21600385    -1.25781527     0.01616802     0.61311896
Mo     -9.82451894     8.61954287    -6.23220053     0.35336735     1.68622665    -2.42741792
O      -1.86574782     1.87103048    -2.02360365    -0.69632786     0.91907853    -0.10501879
O      -1.91937973     1.69705517    -6.02839178    -0.16819372     1.64817201    -0.01715194
O      -6.00309103     6.69555851    -1.95250402     0.33224832     0.61058359    -0.75286100
O      -5.88847304     6.74990642    -5.99013722    -0.60123168     1.16669276    -0.65991106
O      -5.94565158     2.00892012   -10.09397234     1.30809934     0.41960254     0.58587566
O      -5.93674057     1.82538645    -5.84388956     0.64368433     0.25208192     0.69371741
O      -9.81332578     6.94898255    -9.73137570     0.19462201    -0.18121972     0.58488072
O      -9.87954786     6.71397125    -5.94829512    -0.28547772    -0.25507478     0.05798527
O      -3.93247956     2.35339191    -3.96166866    -0.05678339     0.33516114    -0.01544583
O      -3.79671439     2.38354255    -7.89351383    -0.05453356     0.66266176    -0.72204952
O      -7.71597144     2.39183067    -4.01871671    -1.12026723     0.62723277     0.16039759
O      -7.78137502     2.43328352    -8.02757675    -0.34654879     0.53836585     0.15634662
O      -3.81012968     6.27389964    -4.06254949     0.11369172     0.50082172     1.15511984
O      -4.01385038     6.39437256    -7.95771574    -0.15240773    -0.27608117    -0.45847552
O      -8.02809363     6.35317850    -3.90756888     0.62366865     0.03380075    -0.80916447
O      -7.96943068     6.33811538    -7.95802399     1.12794542     0.06724616     0.09090956
O      -4.13926554     4.37941234    -1.97914386     0.40292283    -0.32050496    -0.24194087
O      -4.02764334     4.39858516    -6.05910867     0.33922476    -0.38048273    -0.09893564
O      -7.71836549     4.37242862   -10.03517370    -0.48038882     0.09949649    -0.11996900
O      -8.12214935     4.40846484    -6.03779980     0.49062197    -0.15595485     0.61023799
O      -3.97630581     0.11874431    -9.96908475    -1.10975653    -0.08216991    -0.27952933
O      -7.98155682     8.59101170    -6.15751911    -1.10647687    -0.08693124     0.37548834
O      -3.96798636     8.64449901    -2.05838696     1.46298428    -0.37136891     0.06090884
O      -7.78448741     0.04822141   -10.03761765     1.09239300    -0.29359824    -0.16744740
O      -2.03912508     4.05537552    -4.11494975     0.64541953    -0.03108300     0.01678151
O      -9.78219521     4.55620559    -3.95322763     0.23768149     0.22735770    -0.21234105
O      -5.82704339     4.85653842    -4.17360355    -1.56827529    -0.08741729     0.11451367
O      -5.84746160     4.28406903    -7.88868811    -1.13413784     1.04670533    -0.29782467
O      -1.95224942     0.03147807    -4.02878176    -0.38900504    -0.33675849     0.40552969
O      -5.88621314     8.51446588    -8.10743246    -0.11129709     0.88709533     0.59531308
O      -9.91926569     8.41484399    -4.01458913     0.57037559    -0.17497360    -0.76573372
O      -6.00199226     0.63388747    -8.05197901     0.74243029    -0.87437452     1.08866558
