# total energy = -630.76000704 eV

CRYSTAL
PRIMVEC
        0.00279571     0.02951795    -7.98606283
       -7.83802570     0.01298533    -3.99532603
       -3.92160916     8.71933433     0.00634407
PRIMCOORD
56 1
Li     -4.06695517     2.39899490    -1.90736225     0.51666047    -0.56351153     0.06191728
Li     -4.12633246     2.00136443    -6.05254257     0.97793278     0.60721247     0.66721297
Li     -7.84784569     2.45242114   -10.07281675    -0.04461947    -0.60819969     0.42852534
Li     -7.87701644     2.31313175    -6.06251697     0.39537996    -0.04940494     0.70989458
Li     -3.80181272     6.46166751    -1.97328662    -0.60096133    -0.27822993     0.05334100
Li     -3.83267983     6.48161395    -5.84126777    -0.00012055    -0.08572479     0.02360238
Li     -7.87929048     6.47806344   -10.00920901    -0.11181561     0.35857342     0.18562508
Li     -7.73220993     6.41523663    -5.85843615     0.00288495    -0.00110067    -0.65368290
Ti     -1.94164441     2.27798094    -4.02987716    -0.75982453    -0.41198688    -0.11603695
Ti     -5.78617122     6.81127174    -8.02072135    -0.24336276    -0.35055447     1.12769572
Ti     -7.79321551     4.39289024    -7.86102254     0.31358781     0.49761878     1.00224105
Ti     -7.80708800     4.36794057    -3.75781268    -0.42951312    -0.30388494    -0.87221556
Ti     -3.90470573     4.29547457    -7.70487905    -0.18677460     0.04175934    -0.38460010
Ti     -4.00276349     4.29420048    -3.70122430     0.23032036     0.82638191    -0.77824797
Ti     -2.03859779     0.01329490    -2.09425308    -0.75095301     1.70541592    -0.79705433
Ni     -5.88996898     2.40392433    -7.99147765     0.20852441    -1.11271642    -0.34676171
Ni     -5.93339651     2.24693876    -4.02428646     0.05730610     0.07676589    -0.59950358
Ni     -9.70604667     6.47255393    -7.86821978    -0.81169623     0.23314478     0.06761773
Ni     -9.72178313     6.30283230    -4.11327816    -0.81205648    -0.11661095     1.91694839
Ni     -2.07393317     2.18179967    -7.91877689     1.93014672     0.29733759    -0.52114574
Ni     -5.86301424     6.49937597    -4.01787415     0.36654546     0.58735117     0.16082286
Ni     -5.94223608     8.73009208    -5.82210931     0.62355070     0.45381794    -0.72157573
Mo     -5.95646400     0.05128779   -10.34082341     0.21883417    -0.76187636     2.38594086
Mo     -9.80197528     8.66265472    -6.33959762     0.12498727     0.54240870     1.41812020
O      -1.91904562     1.99219580    -1.98775942    -0.60779516    -0.80150688     0.06106049
O      -2.03375978     1.89585376    -5.90401645     0.21274453    -0.52774856    -0.76890295
O      -5.91394750     6.84236948    -2.05877951     0.60532901    -0.82579608     0.65558716
O      -5.80126211     6.85676965    -5.92826079    -0.55175040     0.39914999     0.02015778
O      -5.89390916     2.02080955   -10.01247838    -0.26258193     0.44649827    -0.30240210
O      -5.94334011     2.04195728    -5.95564044    -0.15616261    -0.26698069    -0.47194038
O      -9.75144448     6.87939313    -9.75545727    -0.24523243     0.66062111    -0.72552984
O      -9.79099397     6.75063335    -5.84215084     0.52495327     0.97265068    -2.49213369
O      -3.98423563     2.34468901    -3.98377173     0.56436268     0.67096457     0.28431588
O      -3.90598373     2.32834463    -7.90083448    -1.09892504     0.71050863    -0.61259218
O      -7.86880560     2.38523241    -3.96941852    -0.42795508     1.28612644    -0.00276450
O      -7.79569479     2.42690828    -8.17375521    -0.98134161     0.36694108     1.11237475
O      -3.79748131     6.27925588    -3.87286095    -0.12957211    -0.12096158    -0.41095017
O      -3.91479066     6.31833916    -7.92572244    -0.27771123     0.33445299    -0.53480930
O      -7.83929437     6.44931175    -4.02774592     0.12757181    -1.61260260     0.33470199
O      -7.74971246     6.38346643    -7.99492865     0.27195678     0.04098170     0.37882824
O      -3.97335949     4.34724841    -1.95259337    -0.08117401    -0.00847636    -0.03103366
O      -3.77252940     4.34705175    -5.99227963    -0.30834361     0.38884675     1.04042317
O      -7.97564807     4.51284882    -9.96788768     0.16784972    -0.22891864    -1.07026402
O      -7.88400637     4.38287255    -6.09588766    -0.14897568     0.23738763     0.18881456
O      -4.10658476     0.01908758    -2.13240096     1.68743511     0.05508566     0.34797115
O      -4.05427694     0.15293138    -5.88780189    -1.34729822    -1.30480292    -0.87891923
O      -7.69952710     0.10014031    -6.04177017    -0.24095541    -1.02199577    -0.45394648
O     -11.62639419     8.71844655   -10.02166164    -1.22049756    -0.06168228     0.51353073
O      -2.00306191     4.16027861    -3.99605648     0.24584442    -0.28000132    -0.03136963
O      -2.01657108     4.35504912    -0.17001732     1.51136854    -0.24370633     0.35890630
O      -5.89011620     4.29662423    -4.13495221    -0.72805359    -0.09388459     0.49895611
O      -5.87381235     4.35941385    -8.01427674     0.29819210    -0.24834674    -0.07694803
O      -2.05331781     0.24398420    -3.92359707     0.62528319    -0.05065266    -0.02459533
O      -5.79432290     8.62511860    -8.02545785    -0.37130345    -0.36435524     0.02333148
O      -6.10420164     0.31749128    -4.09073688     0.81079210    -0.10820415    -1.15365197
O      -5.90406129     0.48224045    -8.06391931     0.34870999     0.72070860    -0.13041073
