# total energy = -630.45635491 eV

CRYSTAL
PRIMVEC
        0.00279571     0.02951795    -7.98606283
       -7.83802570     0.01298533    -3.99532603
       -3.92160916     8.71933433     0.00634407
PRIMCOORD
56 1
Li     -3.92756694     2.16827637    -1.83992305    -0.04679711     0.61287701    -0.60355084
Li     -3.85723757     2.26083183    -6.09607254    -0.64327278    -0.69737420     0.24547848
Li     -7.85021184     2.20013401   -10.05886775    -0.00830988     0.33415927     0.20086404
Li     -7.79189344     2.21198424    -6.11434667    -0.22594910    -0.04439858     0.54074259
Li     -3.81936665     6.33642484    -1.97056538    -0.14873796     0.11510567     0.50650975
Li     -3.84220514     6.60919044    -5.82773027    -0.26250930     0.15387833     0.19209143
Li     -7.87123902     6.33528794   -10.00531954     0.07745168     0.19668710     1.08176654
Li     -7.82805943     6.49462628    -5.91254873     0.18507112     0.09544168     0.07104835
Ti     -2.17787667     2.19944910    -4.07605173     1.02155334     0.95761544    -0.77099473
Ti     -5.77565652     6.85278409    -7.97424234    -0.77702220     1.03048969     1.08879657
Ti     -7.79949205     4.32432907    -7.74869477    -0.12800026     0.65084200     0.27702722
Ti     -7.90838184     4.42819861    -3.75969757     0.25838468    -1.42779074     0.47131174
Ti     -3.94004493     4.31750134    -7.66586772     0.64748300    -0.09903710     0.00249505
Ti     -4.01946986     4.47476990    -3.77826970     0.08891638     0.24404615     0.43521729
Ti     -2.06516917     0.06953575    -2.19732388     0.59989363    -0.51006496     0.03715299
Ni     -5.88328664     2.34507075    -7.95753770    -0.25919192    -0.66052043    -0.14130892
Ni     -5.88550560     2.15787353    -4.03934150    -0.60047558    -0.02519474    -0.39459905
Ni     -9.67030869     6.42233182    -8.01352306    -1.10537840     0.43091931     2.18556551
Ni     -9.83888172     6.43971372    -3.85978163     0.29587360     0.62198543    -0.73018687
Ni     -1.90738875     2.13905078    -8.14320171     0.33368996     0.47023865     0.99023679
Ni     -5.95602279     6.49734023    -3.98037443     0.36600341     1.21823825     0.20365804
Ni     -1.88480768     0.02704759    -5.99480092    -0.15054161    -0.03040275     0.14077559
Mo     -5.85616428     0.15954763   -10.25272671    -1.50664456    -1.08253200    -0.88472461
Mo     -9.82024193     8.60048366    -6.31572379     1.11739082     0.96606246    -0.36398178
O      -1.91522277     1.98395436    -2.13233520    -0.22294836    -0.52632390     0.75855890
O      -1.88265374     1.85714553    -6.02488667    -0.53869123     0.14375539    -0.35495448
O      -5.81611104     6.87516223    -1.85344501    -0.63332742    -0.13828950    -1.37287717
O      -5.79078373     6.89846038    -5.93422190    -0.46253811    -0.18481699    -0.43024743
O      -5.82616665     2.01852016   -10.10096984    -0.82357962     0.81602981     0.47842694
O      -5.96374521     1.93209660    -5.88512153     1.04232397    -0.40193815    -0.35397090
O      -9.76653194     6.95384415    -9.74746031     0.66889121    -0.20088173    -0.77729185
O      -9.71230457     6.76571955    -5.91361092    -0.63319135    -0.36061087    -0.74094324
O      -4.01134273     2.19318412    -4.00552266     0.09338205     0.81270495    -0.26942299
O      -3.87329817     2.37997045    -8.02198608     0.29483818     0.63674356     0.76496438
O      -7.77352667     2.47858522    -4.18566654    -0.48802917    -0.02392144     1.24241434
O      -7.89858436     2.46500245    -8.04133831     0.68023445    -0.42675285     0.15473459
O      -3.80746664     6.42827361    -3.81001083     0.21193835    -1.47894347    -1.28725501
O      -3.92539982     6.28854358    -7.95891789    -0.45332501     0.15440226     0.34919856
O      -7.94363027     6.40990486    -3.84490159     0.70930080    -0.37372232    -0.65710133
O      -7.79307533     6.39781652    -7.96037763     1.10258207    -0.60842106    -0.10468106
O      -4.05051074     4.27835754    -2.02494768     0.25758777    -0.04425255    -0.15068021
O      -4.20713444     4.25226285    -5.89918879     0.90568959     0.09447995    -0.38277093
O      -8.04446260     4.35589583    -9.94368601     0.19262394     0.37352239    -0.79783148
O      -8.04116592     4.42860238    -5.97738825     0.29823209     0.25939268    -1.02695436
O      -3.98305620     0.27403370    -9.92912565     1.16582169    -1.15653547    -0.02953682
O      -4.04679748     0.03159410    -6.12497544    -0.61065909    -0.16093634    -0.16699961
O     -11.66350403     8.72077166    -6.16657761    -0.25282638    -0.23436830     0.75126565
O     -11.58569579     8.69979703    -9.98786052     0.42662485     0.78409410    -0.33060347
O      -2.11751213     4.09276638    -4.09896211     0.53708258    -0.00471357     0.15653662
O      -9.86148726     4.52326639    -4.02045531    -0.53177795    -0.02705019     0.32662024
O      -5.97833871     4.65763991    -3.85755914    -0.18010821    -0.23688225    -0.72037972
O      -5.85830306     4.21994601    -7.93586510    -1.07742775     0.56491629    -0.45996010
O      -2.01027589     0.15670790    -4.06478767    -0.14794969    -0.52532183     0.67989929
O      -5.59158174     8.72445202    -7.95256976    -0.71769901    -1.48013814    -0.34411080
O      -9.69661160     8.44943784    -4.05032435    -0.51470216    -0.24957336     0.83343913
O      -5.97150084     0.48874309    -8.04837847     0.55388017     0.52773195    -0.54443139
