# total energy = -4982.08596070 eV

CRYSTAL
PRIMVEC
        3.80048694     0.00000000     0.00000000
        0.00000000     2.55205422     0.00000000
        0.00000000    -0.00008179     5.06360002
PRIMCOORD
6 1
Ti      1.90024347     1.27598617     2.53179992     0.00000000     0.00000000     0.00000000
Ti      0.00000000     0.00000000     0.00000000     0.00000000     0.00000000     0.00000000
O       1.90024347     0.49734183     0.98682105     0.00000000    -2.38631295    -2.00518096
O       1.90024347     2.05463055     4.07677878     0.00000000     2.38631295     2.00518096
O       0.00000000     0.77861190     3.51862193     0.00000000     2.38621756    -2.00038199
O       0.00000000     1.77336044     1.54497785     0.00000000    -2.38621756     2.00038199
