# total energy = -19960.27786484 eV

CRYSTAL
PRIMVEC
        5.93400000     0.00000000     0.00000000
        0.00000000     9.29699974     0.00000000
        0.00000000     0.00000000     4.64899994
PRIMCOORD
24 1
Ti      4.43274700     7.03095100     2.29269002     2.14880438     0.53684654    -0.61506647
Ti      4.48972098     2.45443198     2.40376199    -1.56367610    -1.93256809    -1.58477535
Ti      1.52237701     6.82313801     2.26144300    -1.73833095     1.39817310    -0.01398706
Ti      1.50224198     2.33102499     2.45960702     1.47480409    -1.65824980    -1.77546592
Ti      2.95064498     4.66912900     4.61708701     0.28313436     0.59049777     1.07716844
Ti      2.96181200     9.23342301     0.02081598    -0.44679876     0.77071108     0.82081805
Ti      5.92971600     4.57893301     4.62036601    -0.35958074     1.47366406     0.54381500
Ti      5.90778297     0.07853102     4.53296000     0.43347581    -0.84525896     2.50205197
O       4.53119398     5.67908902     0.85602601    -0.30751279    -1.98270900    -1.02588263
O       4.49854898     0.75908698     1.01686399    -0.69623751     1.03026944    -0.17059893
O       1.47774102     5.63824601     0.76035701    -0.05254745    -0.88581324     0.16068192
O       1.39737900     0.82992699     1.06211399     0.60524459     0.50987411    -0.49077570
O       4.43227598     8.40371701     3.74734599    -0.27778132    -0.34212783    -0.50672888
O       4.40550798     3.75751699     3.72022899     0.66693335     0.60337514     0.60480391
O       1.45371198     8.37353999     3.87106298     0.65596631    -0.21521221    -1.20196598
O       1.53784402     3.77940498     3.68515401    -0.87282737     0.25966943     0.86447874
O       2.97677301     5.98678702     3.25416899     0.09894380     0.55494583    -0.82526889
O       3.00329600     1.52376399     3.32003600    -0.50151443    -0.46074289     0.11060119
O       0.09668100     6.00708002     3.05549400    -0.77247435    -1.01376604     1.55128467
O       5.90021002     1.49809100     3.31501400    -0.23658992     0.66844696    -0.33922556
O       3.00111098     7.83644101     1.39258100    -0.28608264    -0.10046127     0.38067819
O       2.82587801     3.23317801     1.42785400     1.05493996     0.35641211    -0.31625609
O       5.91451199     7.80423798     1.37911100     0.15340750     0.03728538     0.81998552
O       5.85933902     3.23341799     1.41065002     0.53630018     0.64673887    -0.57037039
