# total energy = -4987.45993673 eV

CRYSTAL
PRIMVEC
        3.53545703     0.00000000     0.00000000
        0.70008315     3.46544947     0.00000000
       -2.11780230    -1.73275108     4.53498791
PRIMCOORD
6 1
Ti      0.52494049     2.59921963     1.13374710     0.00125496    -0.00115648     0.00156169
Ti      1.59279739    -0.86652124     3.40124096    -0.00125496     0.00115648    -0.00156169
O       0.17505783     0.86635730     0.73871253     0.00044737     0.00167302     0.92487423
O       1.94267995     0.86634099     3.79627558    -0.00044737    -0.00167302    -0.92487423
O      -0.17503463    -0.86633832     3.00620639     0.00169744     0.00053042     0.92910601
O       2.29277230     2.59903653     1.52878167    -0.00169744    -0.00053042    -0.92910601
