# total energy = -19953.68780349 eV

CRYSTAL
PRIMVEC
        4.83932859     0.00000000     0.00000000
        0.00002652     5.15050906     0.00000000
        0.00000000     0.00000000     8.66133407
PRIMCOORD
24 1
Ti      1.75403958     3.05218690     3.21329323    -0.04275900     0.68712449    -0.76496749
Ti      3.08531554     2.09832220     5.44804109     0.04275900    -0.68712449     0.76496749
Ti      4.17361915     2.09832397     1.11733932    -0.03848506    -0.68718183     0.75324480
Ti      0.66573596     3.05218533     7.54399510     0.03848506     0.68718183    -0.75324480
Ti      1.75402641     0.47693247     1.11737406    -0.04279269     0.68223811     0.75248736
Ti      3.08532870     4.67357678     7.54396036     0.04279269    -0.68223811    -0.75248736
Ti      0.66572280     0.47693055     5.44800636     0.03833773     0.68186555     0.76561233
Ti      4.17363231     4.67357870     3.21332796    -0.03833773    -0.68186555    -0.76561233
O       1.53168739     1.81358184     4.41981257    -1.41714168    -1.25235422    -0.16082256
O       3.30766772     3.33692731     4.24152175     1.41714168     1.25235422     0.16082256
O       0.88802388     1.81360259     0.08917329     1.41659841    -1.25277485    -0.16026335
O       3.95133129     3.33690657     8.57216078    -1.41659841     1.25277485     0.16026335
O       3.30765456     0.76167273     0.08914519     1.41692776     1.25238327    -0.16081433
O       1.53170056     4.38883637     8.57218889    -1.41692776    -1.25238327     0.16081433
O       3.95131813     0.76165199     4.41984068    -1.41664391     1.25216447    -0.16065416
O       0.88803694     4.38885717     4.24149365     1.41664391    -1.25216447     0.16065416
O       0.17584012     3.13283159     2.33964247    -0.50991140     0.31063489    -0.33980123
O       4.66351500     2.01767752     6.32169185     0.50991140    -0.31063489     0.33980123
O       2.59550829     2.01762952     1.99105223    -0.50961160    -0.31034692     0.33990819
O       2.24384683     3.13287959     6.67028195     0.50961160     0.31034692    -0.33990819
O       0.17582695     0.55757701     1.99102457    -0.51009060     0.31006847     0.33988299
O       4.66352816     4.59293210     6.67030960     0.51009060    -0.31006847    -0.33988299
O       2.24383366     0.55762501     6.32171946     0.50955196     0.31063154     0.33976138
O       2.59552145     4.59288410     2.33961481    -0.50955196    -0.31063154    -0.33976138
