# total energy = -19933.71777732 eV

CRYSTAL
PRIMVEC
        5.41642495     0.00000000     0.00000000
        0.00002288     4.26087567     0.00000000
        0.00000000     0.00000000     8.62378292
PRIMCOORD
24 1
Ti      1.96320711     2.52499101     3.19936196    -0.85301033     2.63595096    -4.95063321
Ti      3.45324077     1.73588481     5.42442101     0.85301033    -2.63595096     4.95063321
Ti      4.67132603     1.73588629     1.11249507    -0.84919892    -2.63510224     4.94600985
Ti      0.74512185     2.52498972     7.51128799     0.84919892     2.63510224    -4.94600985
Ti      1.96319576     0.39455327     1.11252965    -0.85277867     2.63498525     4.94384626
Ti      3.45325212     3.86632269     7.51125341     0.85277867    -2.63498525    -4.94384626
Ti      0.74511050     0.39455165     5.42438644     0.84941387     2.63591651     4.95383114
Ti      4.67133738     3.86632432     3.19939653    -0.84941387    -2.63591651    -4.95383114
O       1.71434078     1.50032679     4.40065042     0.89982859    -3.17051076     3.53624723
O       3.70210715     2.76054903     4.22313255    -0.89982859     3.17051076    -3.53624723
O       0.99391953     1.50034397     0.08878669    -0.89927143    -3.17129597     3.53658611
O       4.42252845     2.76053189     8.53499603     0.89927143     3.17129597    -3.53658611
O       3.70209580     0.63011115     0.08875872    -0.90013327     3.17019606     3.53612639
O       1.71435213     3.63076467     8.53502401     0.90013327    -3.17019606    -3.53612639
O       4.42251710     0.63009401     4.40067839     0.89976971     3.17132220     3.53740860
O       0.99393078     3.63078186     4.22310457    -0.89976971    -3.17132220    -3.53740860
O       0.19680517     2.59170612     2.32949891     2.81193584    -1.00980603     1.19884980
O       5.21964275     1.66916970     6.29428405    -2.81193584     1.00980603    -1.19884980
O       2.90502349     1.66912996     1.98242000     2.81179314     1.01021020    -1.19913108
O       2.51142444     2.59174590     6.64136283    -2.81179314    -1.01021020     1.19913108
O       0.19679383     0.46126828     1.98239245     2.81173195    -1.01041204    -1.19892385
O       5.21965410     3.79960759     6.64139037    -2.81173195     1.01041204     1.19892385
O       2.51141310     0.46130802     6.29431155    -2.81223666    -1.01010350    -1.19887217
O       2.90503483     3.79956780     2.32947137     2.81223666     1.01010350     1.19887217
