# total energy = -19937.77860838 eV

CRYSTAL
PRIMVEC
        6.75565090     0.00000000     0.00000000
        0.00002854     5.31438889     0.00000000
        0.00000000     0.00000000    10.75603694
PRIMCOORD
24 1
Ti      2.44861546     3.14930198     3.99041299     0.42911471    -0.41641217     0.67174080
Ti      4.30706404     2.16508709     6.76562401    -0.42911471     0.41641217    -0.67174080
Ti      5.82632423     2.16508894     1.38756254     0.42999094     0.41628978    -0.67150452
Ti      0.92935527     3.14930037     9.36847458    -0.42999094    -0.41628978     0.67150452
Ti      2.44860130     0.49210765     1.38760566     0.42963253    -0.45104494    -0.67135231
Ti      4.30707819     4.82228160     9.36843146    -0.42963253     0.45104494     0.67135231
Ti      0.92934112     0.49210562     6.76558088    -0.42988732    -0.45081045    -0.67115536
Ti      5.82633838     4.82228363     3.99045611     0.42988732     0.45081045     0.67115536
O       2.13821625     1.87128671     5.48872332     0.88158918     1.08617039    -0.80577863
O       4.61746331     3.44310236     5.26731368    -0.88158918    -1.08617039     0.80577863
O       1.23966886     1.87130814     0.11073945    -0.88096003     1.08593488    -0.80647848
O       5.51601076     3.44308099    10.64529725     0.88096003    -1.08593488     0.80647848
O       4.61744916     0.78590786     0.11070455    -0.88042472    -1.08566851    -0.80507800
O       2.13823040     4.52848121    10.64533214     0.88042472     1.08566851     0.80507800
O       5.51599661     0.78588648     5.48875822     0.88066101    -1.08641182    -0.80626071
O       1.23968289     4.52850265     5.26727878    -0.88066101     1.08641182     0.80626071
O       0.24546580     3.23251257     2.90547392    -1.18326068     0.21498930     0.16758997
O       6.51021376     2.08187650     7.85056308     1.18326068    -0.21498930    -0.16758997
O       3.62329852     2.08182693     2.47257879    -1.18253306    -0.21486229    -0.16624502
O       3.13238103     3.23256220     8.28345803     1.18253306     0.21486229     0.16624502
O       0.24545164     0.57531813     2.47254443    -1.18345274     0.21490317    -0.16616480
O       6.51022791     4.73907100     8.28349239     1.18345274    -0.21490317     0.16616480
O       3.13236688     0.57536769     7.85059737     1.18350622     0.21470056    -0.16810727
O       3.62331268     4.73902138     2.90543956    -1.18350622    -0.21470056     0.16810727
