# total energy = -19961.16277346 eV

CRYSTAL
PRIMVEC
        5.93400000     0.00000000     0.00000000
        0.00000000     9.29699974     0.00000000
        0.00000000     0.00000000     4.64899994
PRIMCOORD
24 1
Ti      4.40500298     6.99304302     2.34583301     0.64022524    -0.56543336    -0.12032999
Ti      4.49057200     2.29181502     2.30705501     0.23500766     0.44233815     0.47749723
Ti      1.48929999     7.01266300     2.36143803    -0.62965234    -0.55502913    -0.16246576
Ti      1.49056298     2.37071397     2.27035202    -0.29803030    -0.23345085     0.36092517
Ti      2.95805098     4.62993401     0.00452198     0.56895269    -0.03725838     0.17585709
Ti      2.96809201     9.26758098     4.62414401    -0.36831092     0.40552534    -0.45263491
Ti      0.02110999     4.70655803     4.63472100    -0.58101837     0.10542041     0.21131725
Ti      5.91269998     9.26626201     0.05600701     0.35615860    -0.01617147    -0.21637975
O       4.47398801     5.51200702     0.92446800    -0.79701245     0.57808602     0.41243364
O       4.51019897     0.89398501     0.92419198    -0.54670595    -0.07893392    -0.74937838
O       1.46092599     5.50258798     0.97482202     0.58914048     0.44271302    -0.01572693
O       1.47717998     0.86668602     0.80586303     0.02590876     0.39420657     0.42074936
O       4.44538900     8.33349000     3.78186603     0.04265539     0.49008458    -0.23957394
O       4.46301298     3.70914300     3.78985602    -0.61002685    -0.15195817    -0.63029692
O       1.51759097     8.33022302     3.69497502     0.03049767     0.64337458     0.69147660
O       1.42991699     3.77904398     3.76592202     0.83559881    -0.60662785    -0.78081861
O       2.97160898     6.06325202     3.23182501    -0.06514278    -0.03279186    -0.00986584
O       2.87123702     1.32817298     3.17175201     0.78347045     0.50714463    -0.02458515
O       0.04357499     6.19578298     3.35232698    -0.20034557    -0.32849969    -0.87288856
O       0.05090500     1.40889098     3.10010200    -0.76066449    -0.35411894     0.85051019
O       3.03818799     7.95394402     1.44603399    -0.51564881    -0.57040742     0.07903728
O       2.93406798     3.24823998     1.48626500     0.54752588     0.21739765    -0.79744440
O       5.88861400     7.86550099     1.38177700     0.59278399     0.00095131     0.14389210
O       5.88433598     3.22689498     1.30936200     0.12463350    -0.69656147     1.24869245
