# total energy = -19073.59774489 eV

CRYSTAL
PRIMVEC
        5.17600016     0.00000000     0.00000000
        0.00000000     5.50899976     0.00000000
        0.00000000     0.00000000     9.26300011
PRIMCOORD
22 1
Ti      1.74043302     3.37684900     3.20138298     1.30504488     0.78023600    -0.14959172
Ti      3.62420100     2.29186201     6.00101400    -0.06232691    -0.19709030    -0.23716584
Ti      4.39428000     2.10037102     1.21894799     0.18384783     0.52263553    -0.79279147
Ti      0.78002700     3.29905402     8.15281402     0.07980296    -0.14230830     0.96943249
Ti      1.77053199     0.45484002     1.32088299     0.12551333     1.03042114    -1.50369302
Ti      3.21771302     5.08517202     8.03145499     0.52242624    -0.80409790     0.11866340
Ti      0.53374199     0.31974101     6.00164298     2.06565461     0.83223863    -1.27282998
Ti      4.34542001     4.94928999     3.45093302     0.64849905    -0.59401504     0.48601350
O       3.33862600     3.38329401     4.46416701     0.12552156     0.39457501     1.03386256
O       0.99449799     2.07584599     0.37717902    -0.95146099    -0.00172007    -1.50187422
O       4.35386398     3.90169901     9.04105698     0.83042523    -1.17467782     0.33266051
O       3.42618298     0.87864501     0.09283700     0.47112655     1.05186055    -0.14281198
O       1.49984602     4.84262601     9.12466402     0.27461603     0.34717979    -1.02055067
O       4.66902502     1.01113199     4.63324898    -1.97257782    -0.23278005     0.07922549
O       0.96429700     4.74005198     4.28603102    -0.24243301    -0.84605780     1.32700854
O       0.12262598     3.48584999     2.31395098    -0.81119543    -0.35509339     0.88788298
O       0.38578001     2.33725701     6.43488500    -1.23914311    -0.39146963     1.32339485
O       2.76548899     1.97166702     2.29641400    -0.20703816    -0.51898739     0.37258615
O       2.66585401     3.29271500     7.58996400    -0.94569837    -0.72867970    -2.65864892
O       0.04940002     0.55318401     2.08325801    -0.27430338     0.64376616     0.17655283
O       2.48414100     0.55911000     6.36186701    -0.17937051     0.57553986     0.70939874
O       2.77237401     4.65378799     2.17398201     0.25306966    -0.19147475     1.46327552
