# total energy = -19955.69617283 eV

CRYSTAL
PRIMVEC
        5.53978647     0.00000000     0.00000000
        0.29464663     5.88864111     0.00000000
        0.00000000     0.00000000     9.91810000
PRIMCOORD
24 1
Ti      2.18251339     3.48960312     3.67954436     0.12017238    -0.77231057     0.55218575
Ti      3.65191948     2.39903776     6.23855575    -0.12017238     0.77231057    -0.55218575
Ti      4.89774728     2.39903978     1.27946606    -0.10923747     0.22547889    -0.27732752
Ti      0.93668566     3.48960133     8.63863416     0.10923747    -0.22547889     0.27732752
Ti      2.03519020     0.54528279     1.27950581     0.12017238    -0.77231057    -0.55218575
Ti      3.79924268     5.34335826     8.63859441    -0.12017238     0.77231057     0.55218575
Ti      0.78936245     0.54528061     6.23851595     0.10923747    -0.22547889    -0.27732752
Ti      5.04507048     5.34336044     3.67958416    -0.10923747     0.22547889     0.27732752
O       1.85712740     2.07349055     5.06113051     0.95162194     0.95580487    -0.11485688
O       3.97730548     3.81515034     4.85696960    -0.95162194    -0.95580487     0.11485688
O       1.12029947     2.07351431     0.10211239    -0.74742717     0.57774792     0.20928299
O       4.71413346     3.81512663     9.81598744     0.74742717    -0.57774792    -0.20928299
O       3.82998228     0.87082984     0.10208023    -0.95162194    -0.95580487    -0.11485688
O       2.00445060     5.01781105     9.81601960     0.95162194     0.95580487     0.11485688
O       4.56681026     0.87080613     5.06116273     0.74742717    -0.57774792     0.20928299
O       1.26762256     5.01783487     4.85693738    -0.74742717     0.57774792    -0.20928299
O       0.38049403     3.58180520     2.67912629     0.22704752     0.04104639     0.32527681
O       5.45393890     2.30683568     7.23897388    -0.22704752    -0.04104639    -0.32527681
O       3.08660049     2.30678082     2.27995530     0.39239857     0.36643222    -0.10466425
O       2.74783244     3.58186007     7.63814464    -0.39239857    -0.36643222     0.10466425
O       0.23317083     0.63748470     2.27992365     0.22704752     0.04104639    -0.32527681
O       5.60126210     5.25115618     7.63817629    -0.22704752    -0.04104639     0.32527681
O       2.60050924     0.63753957     7.23900547    -0.39239857    -0.36643222    -0.10466425
O       3.23392369     5.25110132     2.67909458     0.39239857     0.36643222     0.10466425
