# total energy = -19948.76157289 eV

CRYSTAL
PRIMVEC
        5.72635239     0.00000000     0.00000000
        0.60796849     6.06417058     0.00000000
        0.00000000     0.00000000    10.26177642
PRIMCOORD
24 1
Ti      2.43580895     3.59362191     3.80704595     0.11243978    -1.20633737     0.72075633
Ti      3.89851211     2.47054873     6.45473082    -0.11243978     1.20633737    -0.72075633
Ti      5.18629633     2.47055079     1.32380144    -0.14209258     0.11058782    -0.28127699
Ti      1.14802475     3.59362014     8.93797551     0.14209258    -0.11058782     0.28127699
Ti      2.13182482     0.56153667     1.32384261     0.11243978    -1.20633737    -0.72075633
Ti      4.20249625     5.50263420     8.93793434    -0.11243978     1.20633737     0.72075633
Ti      0.84404054     0.56153444     6.45468971     0.14209258    -0.11058782    -0.28127699
Ti      5.49028047     5.50263637     3.80708712    -0.14209258     0.11058782     0.28127699
O       2.02650280     2.13529757     5.23650609     1.30211974     1.37059775    -0.27074755
O       4.30781826     3.92887312     5.02527068    -1.30211974    -1.37059775     0.27074755
O       1.26486152     2.13532209     0.10565074    -0.86637030     0.58608061     0.38825729
O       5.06945960     3.92884865    10.15612580     0.86637030    -0.58608061    -0.38825729
O       4.00383413     0.89678765     0.10561747    -1.30211974    -1.37059775    -0.27074755
O       2.33048693     5.16738304    10.15615907     1.30211974     1.37059775     0.27074755
O       4.76547546     0.89676318     5.23653942     0.86637030    -0.58608061     0.38825729
O       1.56884554     5.16740751     5.02523741    -0.86637030     0.58608061    -0.38825729
O       0.57785251     3.68857244     2.77196189     0.29831287     0.34548029     0.63296084
O       5.75646849     2.37559825     7.48981489    -0.29831287    -0.34548029    -0.63296084
O       3.30940122     2.37554177     2.35895913     0.55026770     0.70085110     0.03890826
O       3.02491984     3.68862886     7.90281753    -0.55026770    -0.70085110    -0.03890826
O       0.27386837     0.65648697     2.35892632     0.29831287     0.34548029    -0.63296084
O       6.06045263     5.40768366     7.90285028    -0.29831287    -0.34548029     0.63296084
O       2.72093570     0.65654345     7.48984763    -0.55026770    -0.70085110     0.03890826
O       3.61338536     5.40762724     2.77192914     0.55026770     0.70085110    -0.03890826
