# total energy = -19072.79905871 eV

CRYSTAL
PRIMVEC
        5.93400000     0.00000000     0.00000000
        0.00000000     9.29699974     0.00000000
        0.00000000     0.00000000     4.64899994
PRIMCOORD
22 1
Ti      4.31281099     6.87048302     2.28490100     0.73344910    -0.00225614    -0.34308633
Ti      4.30732602     2.42707601     2.00586102     5.62284863    -0.31695363     3.15802136
Ti      1.49053901     7.25351702     2.63002802     0.43195886    -0.30188465     0.87521155
Ti      1.60179699     2.27337002     2.25177102    -2.30535968    -0.70195230     0.82903478
Ti      3.07954002     4.52599798     4.42341697    -0.88763616     1.79983227     2.75393636
Ti      3.01733000     0.17094198     4.54717100     0.04426670    -1.24607507     0.57963383
Ti      5.88542598     4.52327299     4.37577001    -0.57926102    -0.37199763    -0.01536415
Ti      5.84511098     9.18805702     0.46176203     0.29923795     0.59883020    -1.21089491
O       4.55252702     5.46507900     0.94937701    -0.38910421    -0.17638648    -0.18312612
O       4.30006401     0.72802502     1.30694398     0.96854366    -0.36846313    -1.23330851
O       1.58840399     0.60216402     1.32222699    -0.82661306     1.48018772    -0.40844277
O       4.49291102     8.38869203     3.79097999    -0.02661581     1.56318168     0.99823092
O       4.26089198     3.99462798     3.36746901     3.31997238    -1.90112966    -2.11753898
O       1.44203902     8.40939497     3.99380199    -0.00885643     0.75437197    -0.68647014
O       1.64784901     3.88558403     3.46250602    -1.74901183     0.29926958     0.76632170
O       2.97170899     6.19371898     3.37512002    -0.92320661    -0.59378827     0.29648301
O       3.06704599     1.68966201     3.49417601     0.38631868    -0.61231564    -0.65296223
O       5.90715198     6.18472201     3.31110402     1.23472467    -1.28584979     0.36755270
O       2.96283098     7.85094702     1.44794998    -0.19690749    -1.20177674     0.48436388
O       2.93551401     2.85659802     1.15546699    -2.69281067     3.53170358    -3.54033709
O       0.08120701     7.86373099     1.58666401    -1.16858662    -1.06660609    -0.34056639
O       0.22141702     3.15854798     1.25743299    -1.28735080     0.12005796    -0.37669246
