# total energy = -19913.64993706 eV

CRYSTAL
PRIMVEC
        6.46586582     0.00000000     0.00000000
        2.64681358     6.35226706     0.00000000
        0.00000000     0.00000000    11.82055978
PRIMCOORD
24 1
Ti      3.91206470     3.76434770     4.38534337    -0.13191975    -2.22786120     0.56227167
Ti      5.20061481     2.58791954     7.43521654     0.13191975     2.22786120    -0.56227167
Ti      6.65470688     2.58792170     1.52488933    -0.32371718    -1.13289301     0.21938512
Ti      2.45797267     3.76434579    10.29567064     0.32371718     1.13289301    -0.21938512
Ti      2.58865804     0.58821414     1.52493672    -0.13191975    -2.22786120    -0.56227167
Ti      6.52402151     5.76405329    10.29562326     0.13191975     2.22786120     0.56227167
Ti      1.13456586     0.58821180     7.43516909     0.32371718     1.13289301     0.21938512
Ti      7.97811369     5.76405563     4.38539075    -0.32371718    -1.13289301    -0.21938512
O       2.97847540     2.23674129     6.03194120     1.82975633     2.09533750    -0.81654333
O       6.13420404     4.11552597     5.78861871    -1.82975633    -2.09533750     0.81654333
O       2.11848213     2.23676695     0.12169929    -0.21403670    -0.75866520     1.56739315
O       6.99419746     4.11550040    11.69886023     0.21403670     0.75866520    -1.56739315
O       4.81079735     0.93939228     0.12166092    -1.82975633    -2.09533750    -0.81654333
O       4.30188215     5.41287496    11.69889861     1.82975633     2.09533750     0.81654333
O       5.67079070     0.93936667     6.03197951     0.21403670     0.75866520     1.56739315
O       3.44188870     5.41290066     5.78858034    -0.21403670    -0.75866520    -1.56739315
O       1.84486195     3.86380911     3.19302812     0.62580880     2.68101059     2.55013136
O       7.26781749     2.48845815     8.62753180    -0.62580880    -2.68101059    -2.55013136
O       4.50471248     2.48839903     2.71728944     0.67304050     2.06682498     1.51622509
O       4.60796696     3.86386822     9.10327028    -0.67304050    -2.06682498    -1.51622509
O       0.52145525     0.68767536     2.71725165     0.62580880     2.68101059    -2.55013136
O       8.59122426     5.66459188     9.10330801    -0.62580880    -2.68101059     2.55013136
O       3.28456027     0.68773454     8.62756946    -0.67304050    -2.06682498     1.51622509
O       5.82811917     5.66453272     3.19299039     0.67304050     2.06682498    -1.51622509
