# total energy = -19961.12635277 eV

CRYSTAL
PRIMVEC
        5.93400000     0.00000000     0.00000000
        0.00000000     9.29699974     0.00000000
        0.00000000     0.00000000     4.64899994
PRIMCOORD
24 1
Ti      4.39928199     6.98113102     2.31774100     0.89738039    -0.71012044     0.04661155
Ti      4.49448802     2.27803498     2.29716098     0.12189579     0.79390630     0.56040917
Ti      1.49678701     7.01923099     2.37198400    -0.93686149    -0.89076031    -0.13838865
Ti      1.48933302     2.36181898     2.27517901    -0.04665526    -0.03240722     0.26580640
Ti      2.96598800     4.63270901     4.64392101     0.17479420    -0.29038564     0.25156737
Ti      2.97195802     9.27545699     4.62345000    -0.39446831     0.51671531    -0.47653589
Ti      0.00637801     4.69744300     4.63085298    -0.14833137     0.05273180     0.10630718
Ti      5.91115399     9.25905800     0.06397599     0.39387721     0.13040383    -0.27418486
O       4.50955899     5.51692202     0.94623899    -1.05317670     0.66491478     0.32711489
O       4.51491998     0.91970101     0.95413902    -0.54811440    -0.60295503    -1.08863222
O       1.45873800     5.50859902     0.97326200     0.64206692     0.61642581     0.09778937
O       1.48173599     0.88017401     0.80964701    -0.12897481     0.41954660     0.66380200
O       4.43275902     8.33702998     3.79667500     0.14001307     0.54005245    -0.27012868
O       4.46980899     3.69820099     3.78041899    -0.64138660     0.16493607    -0.42400952
O       1.50963998     8.37706902     3.71119800     0.03763505     0.05116806     0.29123539
O       1.45025597     3.79058200     3.76141200     0.67807523    -0.65686542    -0.78395793
O       3.00138499     6.02879099     3.24511900    -0.36968209     0.61068736    -0.33266231
O       2.88307598     1.34113402     3.18355002     0.53108727     0.55982218    -0.14762560
O       0.03439001     6.20238002     3.34766101     0.02080075    -0.19574356    -0.84776605
O       0.03769499     1.40810500     3.14171898    -0.51895243    -0.10503655     0.45893437
O       3.02413098     7.94604002     1.43034801    -0.49909836    -0.62637830     0.38007475
O       2.91936003     3.26715601     1.46332898     0.39831391    -0.18751859    -0.36228940
O       5.88393200     7.85223599     1.38944398     0.76220536     0.24066589     0.10849622
O       5.84940901     3.24451002     1.29342699     0.48755719    -1.06380564     1.58803269
