# total energy = -19516.69060613 eV

CRYSTAL
PRIMVEC
        5.93400000     0.00000000     0.00000000
        0.00000000     9.29699974     0.00000000
        0.00000000     0.00000000     4.64899994
PRIMCOORD
23 1
Ti      4.58205701     6.99567398     2.30205402    -0.57036268     0.63504549    -1.25666956
Ti      4.43565198     2.29713098     2.34386902     1.84831533    -0.20264440    -0.18501871
Ti      1.50120998     6.88763900     2.31446598     0.83601584     1.86445492    -0.43723245
Ti      1.53221299     2.31909300     2.22629801    -1.72327096    -0.26912107     0.28034676
Ti      2.90685800     4.58851800     0.08626298     0.35184043    -0.62861439     0.28640969
Ti      3.00649298     0.05991699     0.06620198    -1.20618104     0.37669092     0.16364204
Ti      5.90608601     4.71787300     4.59554902     0.47573217    -1.63111976     1.25363617
Ti      5.90040598     9.20464498     4.50402300     1.34196105     1.06573191     0.03428696
O       4.49406097     5.55173299     0.94834998    -1.29184381     1.85743735     1.13875410
O       4.46393899     1.00625001     0.85268098    -0.32892238    -0.74201422    -0.04697330
O       1.47210502     5.51845298     1.08881802     0.51476564    -0.34050289    -0.78106441
O       1.46217098     0.97232901     0.79442798    -0.12694852     0.26113573     0.82439908
O       4.32698098     8.36916898     3.75589501     0.82810610    -0.82705709    -0.34819949
O       4.42223903     3.81070502     4.04129200    -0.63942228    -1.29020807    -2.80968792
O       1.41660898     8.59954402     3.54550001     0.28037916    -1.28805194     1.26190433
O       1.37416701     3.55665099     3.81293000     1.31281065     1.74817751     0.59018564
O       3.01386500     1.35120601     3.19781098    -0.68900937     0.84088423    -0.17281882
O       5.91598898     6.07709001     3.32374802    -0.08741240     0.82516321    -0.59169025
O       5.83032201     1.43610699     3.20162502     0.61651554    -0.49240578     0.04126185
O       2.88955697     7.85789697     1.43993400     0.84610717    -0.52387378     0.18434354
O       3.03501298     3.17711401     1.35895702    -1.50576610     0.53185834     0.95174664
O       0.15060199     7.95506598     1.44176099    -1.75421137    -0.71607281    -0.19834988
O       5.85637499     3.42354000     1.60264902     0.67080209    -1.05489368    -0.18321277
