# total energy = -19949.66395693 eV

CRYSTAL
PRIMVEC
        6.20572702     0.00000000     0.00000000
        0.00002886     5.40390308     0.00000000
        0.00000000     0.00000000    10.19916170
PRIMCOORD
24 1
Ti      2.24929466     3.20234785     3.78381638     0.21444628    -0.27841047     0.21143912
Ti      3.95646128     2.20155500     6.41534573    -0.21444628     0.27841047    -0.21143912
Ti      5.35205065     2.20155675     1.31572392     0.21559531     0.27861461    -0.20928299
Ti      0.85370529     3.20234628     8.88343829    -0.21559531    -0.27861461     0.20928299
Ti      2.24928046     0.50039643     1.31576482     0.21434164    -0.32264117    -0.20873637
Ti      3.95647548     4.90350660     8.88339740    -0.21434164     0.32264117     0.20873637
Ti      0.85369109     0.50039445     6.41530483    -0.21495793    -0.32187652    -0.20975762
Ti      5.35206484     4.90350852     3.78385727     0.21495793     0.32187652     0.20975762
O       1.96416196     1.90280606     5.20455430     0.88802388     0.81222079    -0.30838260
O       4.24159397     3.50109679     4.99460780    -0.88802388    -0.81222079     0.30838260
O       1.13875814     1.90282790     0.10500610    -0.88826762     0.81249230    -0.30900661
O       5.06699786     3.50107501    10.09415572     0.88826762    -0.81249230     0.30900661
O       4.24157978     0.79914519     0.10497299    -0.88786370    -0.81290856    -0.30804013
O       1.96417616     4.60475766    10.09418882     0.88786370     0.81290856     0.30804013
O       5.06698360     0.79912341     5.20458741     0.88834270    -0.81361458    -0.30866285
O       1.13877222     4.60477950     4.99457469    -0.88834270     0.81361458     0.30866285
O       0.22548586     3.28696021     2.75504812    -0.45744827    -0.03022616     0.16074337
O       5.98027008     2.11694264     7.44411398     0.45744827     0.03022616    -0.16074337
O       3.32835558     2.11689242     2.34456537    -0.45751564     0.03067276    -0.15988745
O       2.87740036     3.28701043     7.85459656     0.45751564    -0.03067276     0.15988745
O       0.22547160     0.58500861     2.34453278    -0.45751769    -0.03076815    -0.15977509
O       5.98028433     4.81889424     7.85462915     0.45751769     0.03076815     0.15977509
O       2.87738610     0.58505883     7.44414651     0.45750715    -0.03038377    -0.16145942
O       3.32836983     4.81884402     2.75501553    -0.45750715     0.03038377     0.16145942
