# total energy = -4988.50298219 eV

CRYSTAL
PRIMVEC
        3.12444661     0.00000000     0.00000000
        1.20505603     4.74490740     0.00000000
       -0.00000775    -0.00006415     4.93484220
PRIMCOORD
6 1
Ti      2.16474732     2.37242152     2.46742115     0.00000000     0.00000000     0.00000000
Ti      0.00000000     0.00000000     0.00000000     0.00000000     0.00000000     0.00000000
O       1.79706938     0.92470000     0.96172809    -0.20765702     0.08803846    -0.09658018
O       2.53242521     3.82014305     3.97311422     0.20765702    -0.08803846     0.09658018
O       0.36767465     1.44769555     3.42915023     0.20758992    -0.08818964    -0.09666272
O       0.83737350     3.29714759     1.50569208    -0.20758992     0.08818964     0.09666272
