# total energy = -19520.01115634 eV

CRYSTAL
PRIMVEC
        5.17575250     0.00001323     0.00000000
        0.00001429     5.50856584     0.00000000
        0.00000000     0.00000000     9.26345890
PRIMCOORD
23 1
Ti      1.84381870     3.36588193     3.40879674    -0.01763469    -0.01755987     0.00305524
Ti      3.37030808     2.16876577     5.77099878    -0.00216127     0.00326427    -0.00343654
Ti      4.57875723     1.94621363     1.42558924    -0.00073122    -0.00291563    -0.00972752
Ti      0.84668291     3.31524100     7.93886605    -0.00557878     0.00721863    -0.00780279
Ti      2.02841368     0.48324516     1.25586117     0.02689195     0.01254930    -0.01558398
Ti      3.16147255     5.16955443     7.91218908    -0.00060987    -0.01484915     0.01276322
Ti      0.61417864     0.70074329     5.66510473    -0.01434342    -0.00986250     0.02256298
Ti      4.57572198     4.83043890     3.57349343    -0.01951648    -0.00684968    -0.00542837
O       1.52970398     1.95239345     4.66662760     0.00959999    -0.01678854    -0.00658280
O       3.57699804     3.51601303     4.50303841     0.00189876     0.00640179    -0.00263384
O       0.73411927     2.11995735     0.09210447    -0.03406404     0.02395755     0.01090354
O       3.54594183     0.84746029     0.09267212    -0.00773517     0.00182677    -0.01073693
O       1.68660528     4.71324017     9.13689177     0.00957145     0.01376801     0.02250667
O       4.06233933     0.76858319     4.70356171    -0.03782094    -0.02697962    -0.01206722
O       1.03999618     4.63556304     4.62049678     0.00636631     0.01159182     0.00607115
O       0.17846861     3.37300278     2.38560124     0.01400429    -0.00418164     0.03625900
O       4.93860948     2.15222545     6.83361361     0.00163059     0.00329127     0.00559704
O       2.78478969     2.12293835     2.09756936     0.00499283     0.00675146    -0.00284853
O       2.48679236     3.41614698     7.14028126     0.02629391    -0.00103436    -0.00091917
O       0.27479960     0.55732633     2.21043082     0.02322658    -0.00068057    -0.01989803
O       4.89844484     4.78217423     7.33626850     0.00206100     0.01721611    -0.01748094
O       2.31598994     0.74413289     6.76667406     0.00385434    -0.00776088    -0.00572585
O       2.81023567     4.85281355     2.45669208     0.00980388     0.00162571     0.00115417
