# total energy = -19073.57429261 eV

CRYSTAL
PRIMVEC
        7.60600008     0.00000000     0.00000000
        0.00000000     7.60600008     0.00000000
       -1.89786986    -1.89786986     4.85670466
PRIMCOORD
22 1
Ti      3.70657903     6.66170402     1.21077602     0.92729801    -0.49488998     1.04745522
Ti      3.91890399     2.94091199     1.40372097    -1.09447146    -1.11393986     1.53980520
Ti      0.11937000     6.62309800     1.05310998    -1.02546379    -0.33747593     0.40233897
Ti     -0.18717603     2.82014501     1.15675099     0.10321800     1.72464188    -0.71046086
Ti      5.83246221     2.82227024     3.64643480    -1.26395555    -0.69374585     0.52681075
Ti      5.85995223    -0.89350277     3.68465183    -0.76521998     0.54339591    -1.16997244
Ti      1.92306521     2.82282323     3.86003683     1.26992720     0.76218350    -3.49038722
Ti      1.71359124    -0.70116478     3.94394180     0.02509732    -0.73918935    -0.70274240
O       3.77703099     4.62960401     0.77191699    -0.95873027     1.92725594     3.93178332
O       3.77292399     0.88378602     1.02286099    -0.56533849     1.59788721    -0.27193463
O       0.01459698     4.72668200     0.79118000     0.92349046     0.89685485     0.57845189
O       0.01825497     1.07964902     0.75047701     0.22589284    -2.64282892     0.47614997
O       5.60701625     4.68564325     3.97330082     1.15194772     2.75370804     1.05590927
O       5.13287825     1.10180323     4.07021683     1.55815080    -1.86937190    -0.46558916
O       1.69832723     4.65312022     4.25134182    -0.03245813     2.51084849    -0.51469185
O       2.37802022     1.02609924     4.30516681    -0.60011730    -2.88608057    -1.30813432
O       3.83398522     3.11752024     3.45723880    -1.96389803    -0.14757495    -1.70676936
O       0.16930121     3.02845923     3.00317181     0.30862248    -1.01736790     1.53895674
O       5.69130402     6.63072398     1.70375098     0.26855234    -0.13829558     0.59774108
O       5.66641798     2.81524303     1.74430501     1.02175163    -0.40031320    -0.31191067
O       1.88834102     6.47134600     2.00445701    -0.07076758     0.61271519    -0.44067876
O      -0.04970678    -0.17356077     3.65380582     0.55647178    -0.84841705    -0.60213124
