# total energy = -19952.85835197 eV

CRYSTAL
PRIMVEC
        4.94149128     0.00000000     0.00000000
        1.04145963     5.15509240     0.00000000
        0.00000000     0.00000000     8.88917763
PRIMCOORD
24 1
Ti      2.40822085     3.05490298     3.29782161     1.70112887    -0.99662526     0.56306255
Ti      3.57472982     2.10018954     5.59135637    -1.70112887     0.99662526    -0.56306255
Ti      4.68600882     2.10019139     1.14673186    -2.78311479    -0.44740297     1.51263891
Ti      1.29694187     3.05490134     7.74244622     2.78311479     0.44740297    -1.51263891
Ti      1.88749115     0.47735697     1.14676750     1.70060462    -0.99468536    -0.55188416
Ti      4.09545953     4.67773570     7.74241058    -1.70060462     0.99468536     0.55188416
Ti      0.77621209     0.47735498     5.59132073     2.78422602     0.44950202     1.49713490
Ti      5.20673860     4.67773770     3.29785726    -2.78422602    -0.44950202    -1.49713490
O       1.93072874     1.81519569     4.53607944    -0.86491840    -0.27660607    -0.65567834
O       4.05222193     3.33989683     4.35309854     0.86491840     0.27660607     0.65567834
O       1.27348114     1.81521645     0.09151908     1.07370156    -0.98611202     0.00130843
O       4.70946958     3.33987612     8.79765865    -1.07370156     0.98611202    -0.00130843
O       3.53149222     0.76235067     0.09149022     0.86424297     0.27611550    -0.65575779
O       2.45145845     4.39274185     8.79768751    -0.86424297    -0.27611550     0.65575779
O       4.18873987     0.76232996     4.53610829    -1.07478734     0.98688669     0.00111072
O       1.79421076     4.39276262     4.35306969     1.07478734    -0.98688669    -0.00111072
O       0.81301054     3.13561937     2.40118873    -0.56379917    -0.74517179    -1.20135251
O       5.16994013     2.01947316     6.48798925     0.56379917     0.74517179     1.20135251
O       3.05826627     2.01942501     2.04342854     0.80067087    -1.26987038    -1.28156248
O       2.92468440     3.13566751     6.84574929    -0.80067087     1.26987038     1.28156248
O       0.29228083     0.55807320     2.04340013    -0.56410590    -0.74507872     1.19969338
O       5.69066985     4.59701937     6.84577770     0.56410590     0.74507872    -1.19969338
O       2.40395469     0.55812130     6.48801760    -0.80093441     1.27017685    -1.28080400
O       3.57899599     4.59697122     2.40116033     0.80093441    -1.27017685     1.28080400
