# total energy = -4958.98808767 eV

CRYSTAL
PRIMVEC
        5.36529145     0.00000000     0.00000000
       -0.00000741     2.58328831     0.00000000
       -2.68267578    -1.29171633     5.78014582
PRIMCOORD
6 1
Ti     -0.00022921     1.93755189     1.44503615    -0.01550993    -0.01839291    31.45506232
Ti      2.68283741    -0.64598007     4.33510895     0.01550993     0.01839291   -31.45506232
O       0.00005709     0.64580969     0.94153839     0.01511398     0.01774525   -24.71174323
O       2.68255094     0.64576202     4.83860677    -0.01511398    -0.01774525    24.71174323
O      -0.00002192    -0.64583906     3.83161119    -0.00179720    -0.00028976    -1.72076131
O       2.68262989     1.93741077     1.94853397     0.00179720     0.00028976     1.72076131
