# total energy = -19883.81155087 eV

CRYSTAL
PRIMVEC
        9.23871849     0.00000000     0.00000000
        0.00003025     4.21405286     0.00000000
        0.00000000     0.00000000    14.06060746
PRIMCOORD
24 1
Ti      3.34860888     2.49724384     5.21638508     0.29061807    -0.36198883     2.73030482
Ti      5.89013946     1.71680909     8.84422257    -0.29061807     0.36198883    -2.73030482
Ti      7.96780999     1.71681052     1.81386251     0.29044889     0.36202020    -2.73109930
Ti      1.27093835     2.49724254    12.24674529    -0.29044889    -0.36202020     2.73109930
Ti      3.34859395     0.39021748     1.81391891     0.29061807    -0.36198883    -2.73030482
Ti      5.89015439     3.82383552    12.24668888    -0.29061807     0.36198883     2.73030482
Ti      1.27092342     0.39021591     8.84416617    -0.29044889    -0.36202020    -2.73109930
Ti      7.96782492     3.82383709     5.21644149     0.29044889     0.36202020     2.73109930
O       2.92412328     1.48383964     7.17502041     0.85961215     1.09966843    -2.50370571
O       6.31462506     2.73021323     6.88558725    -0.85961215    -1.09966843     2.50370571
O       1.69531107     1.48385664     0.14476182    -0.85895678     1.09972139    -2.50374659
O       7.54343734     2.73019630    13.91584543     0.85895678    -1.09972139     2.50374659
O       6.31461020     0.62318680     0.14471621    -0.85961215    -1.09966843    -2.50370571
O       2.92413814     3.59086614    13.91589104     0.85961215     1.09966843     2.50370571
O       7.54342248     0.62316980     7.17506602     0.85895678    -1.09972139    -2.50374659
O       1.69532580     3.59088314     6.88554164    -0.85895678     1.09972139     2.50374659
O       0.33568227     2.56322582     3.79812089    -2.15803361     0.65615657    -0.02523410
O       8.90306607     1.65082705    10.26248677     2.15803361    -0.65615657     0.02523410
O       4.95505327     1.65078779     3.23222764    -2.15951663    -0.65615040     0.02494794
O       4.28369507     2.56326514    10.82837982     2.15951663     0.65615040    -0.02494794
O       0.33566742     0.45619938     3.23218277    -2.15803361     0.65615657     0.02523410
O       8.90308093     3.75785355    10.82842468     2.15803361    -0.65615657    -0.02523410
O       4.28368021     0.45623864    10.26253157     2.15951663     0.65615040     0.02494794
O       4.95506813     3.75781429     3.79807602    -2.15951663    -0.65615040    -0.02494794
