# total energy = -19074.94154485 eV

CRYSTAL
PRIMVEC
        7.60600008     0.00000000     0.00000000
        0.00000000     7.60600008     0.00000000
       -1.89786986    -1.89786986     4.85670466
PRIMCOORD
22 1
Ti      3.82671501     6.59195799     1.18734997     0.17664154     2.12949127    -1.38912667
Ti      3.69131501     2.87479801     1.26047603     0.83551782    -0.80692457     0.88448913
Ti     -0.06377200     6.59826700     1.12555901     0.07426763    -0.02119670    -0.78580192
Ti     -0.11447099     2.81861701     1.18031800    -0.07600235     0.08961275    -0.90868604
Ti      5.82473220     2.77084124     3.56021982    -2.61002806     0.73258881     0.80745910
Ti     -1.34326877    -0.94475777     3.78247183    -2.49802305    -0.73903894    -1.20415193
Ti      1.82694223     2.80076024     3.69753682     1.82278683     1.76358562    -1.31152818
Ti      1.59258825    -0.82769376     3.75905282     0.59084101    -1.26868124    -1.72962596
O       3.63297301     4.82803299     0.83246699    -0.31207959    -1.07112840    -0.32298596
O       4.06124600     0.96618997     0.66468901    -0.77949166     0.31663301     2.39348993
O       0.18403800     4.70911898     0.76945902    -0.25887805    -1.02503519    -1.02679717
O       7.18495999     0.93702199     0.58567798     1.31901703     1.05177236     1.73028159
O       5.62146125     4.77127021     4.10154782     1.00021966    -0.26950185    -1.05303863
O       5.58518821     0.83830821     3.76785384     1.21710824     0.95568197     0.83109269
O       2.03502123     4.87480120     3.98889583    -0.80843844    -1.01519198     0.84782904
O       2.06961021     1.01443623     4.08195779    -0.82236868    -0.18256099    -0.16639517
O       3.82657325     2.95898625     3.19970882    -0.25955013    -0.37008781    -0.05986636
O      -0.00882980     3.10505324     3.14234283     0.22436637    -0.76507908     0.24462950
O       5.70961599     6.40576898     1.78240598     0.07241875     0.46538913     1.11176933
O       5.65994302     3.01967102     1.52921700     0.80174431    -0.22603939     0.68198871
O       1.78081300     6.74803702     1.69186301     0.85572850     0.32146669     1.09515768
O       1.87952398     2.63440702     1.72441599    -0.56579820    -0.06575547    -0.67018323
