# total energy = -4990.28001915 eV

CRYSTAL
PRIMVEC
        2.92322357     0.00000000     0.00000000
        0.22886987     4.57453132     0.00000000
       -0.00000126    -0.00005945     4.58168610
PRIMCOORD
6 1
Ti      1.57604598     2.28723578     2.29084295     0.00000000     0.00000000     0.00000000
Ti      0.00000000     0.00000000     0.00000000     0.00000000     0.00000000     0.00000000
O       1.50621482     0.89149708     0.89290307    -0.33820432     0.20409219     0.20170260
O       1.64587708     3.68297449     3.68878277     0.33820432    -0.20409219    -0.20170260
O       0.06983053     1.39571461     3.18374695     0.33792484    -0.20398189     0.20159385
O       0.15903797     3.17875716     1.39793889    -0.33792484     0.20398189    -0.20159385
