# total energy = -19910.88061627 eV

CRYSTAL
PRIMVEC
        7.44014416     0.00000000     0.00000000
        0.00003143     5.85285120     0.00000000
        0.00000000     0.00000000    11.84585566
PRIMCOORD
24 1
Ti      2.69671306     3.46839425     4.39472796     0.50746679    -0.84109069     1.21769111
Ti      4.74346260     2.38445715     7.45112776    -0.50746679     0.84109069    -1.21769111
Ti      6.41665664     2.38445919     1.52815257     0.50827283     0.84141208    -1.21820070
Ti      1.02351902     3.46839248    10.31770328    -0.50827283    -0.84141208     1.21820070
Ti      2.69669747     0.54196878     1.52820007     0.50746679    -0.84109069    -1.21769111
Ti      4.74347819     5.31088282    10.31765579    -0.50746679     0.84109069     1.21769111
Ti      1.02350344     0.54196655     7.45108027    -0.50827283    -0.84141208    -1.21820070
Ti      6.41667222     5.31088505     4.39477545     0.50827283     0.84141208     1.21820070
O       2.35486371     2.06088844     6.04484947     0.79639487     1.46746230    -1.25871153
O       5.08531201     3.79196296     5.80100625    -0.79639487    -1.46746230     1.25871153
O       1.36527408     2.06091205     0.12195975    -0.79619793     1.46787291    -1.25963533
O       6.07490172     3.79193941    11.72389565     0.79619793    -1.46787291     1.25963533
O       5.08529643     0.86553729     0.12192131    -0.79639487    -1.46746230    -1.25871153
O       2.35487930     4.98731411    11.72393408     0.79639487     1.46746230     1.25871153
O       6.07488613     0.86551375     6.04488790     0.79619793    -1.46787291    -1.25963533
O       1.36528953     4.98733772     5.80096782    -0.79619793     1.46787291     1.25963533
O       0.27033678     3.56003587     3.19986114    -1.41096409     0.30312520     0.01789437
O       7.16983895     2.29281553     8.64599458     1.41096409    -0.30312520    -0.01789437
O       3.99041688     2.29276094     2.72310439    -1.41108699    -0.30292749    -0.01784449
O       3.44975885     3.56009053     9.12275114     1.41108699     0.30292749     0.01784449
O       0.27032119     0.63361027     2.72306655    -1.41096409     0.30312520    -0.01789437
O       7.16985453     5.21924119     9.12278897     1.41096409    -0.30312520     0.01789437
O       3.44974326     0.63366486     8.64603235     1.41108699     0.30292749    -0.01784449
O       3.99043246     5.21918654     3.19982331    -1.41108699    -0.30292749     0.01784449
