# total energy = -39040.43532915 eV

CRYSTAL
PRIMVEC
        7.60629642    -0.00000847    -0.00005503
       -0.00000847     7.60629642    -0.00005503
       -3.80314186    -3.80314186     9.70738094
PRIMCOORD
46 1
Ti      1.88514985     4.81944702     6.13206823    -0.03281757     0.00413922     0.00822470
Ti      3.78673551     6.72106499     1.27839890    -0.03295821     0.00404923     0.00831804
Ti      1.93107148     0.88292618     6.06509245    -0.02818650     0.02655513     0.00506328
Ti      3.83262885     2.78451798     1.21140484    -0.02823432     0.02666441     0.00541320
Ti     -1.88696227     4.74179051     6.07845381     0.04310559    -0.05196998     0.06152961
Ti      0.01461173     6.64336995     1.22479227     0.04312282    -0.05184451     0.06135169
Ti     -1.93360723     0.95970101     6.02117855     0.03400619     0.04632050     0.05124750
Ti     -0.03202238     2.86127977     1.16749434     0.03400054     0.04626393     0.05156966
Ti      3.80723423     0.96387591     8.49838742    -0.01159517     0.00829207    -0.11209140
Ti      5.70880240     2.86542785     3.64467111    -0.01148872     0.00856101    -0.11212688
Ti      3.81210360    -2.86603339     8.50189602    -0.01857751    -0.00023603    -0.00195635
Ti      5.71366410    -0.96444830     3.64817791    -0.01859602    -0.00063712    -0.00179412
Ti     -0.00545859     0.96640320     8.35054825     0.02800884    -0.04086256    -0.00267935
Ti      1.89612236     2.86795537     3.49690792     0.02801526    -0.04100962    -0.00286190
Ti     -0.00321547    -2.86458570     8.57660985     0.02676545    -0.01291466    -0.01875518
Ti      1.89834273    -0.96298574     3.72285853     0.02676082    -0.01279047    -0.01825201
O       1.89404236    -0.95388785     5.68992437     0.00459791     0.00779353    -0.01537983
O       3.79561561     0.94773496     0.83630686     0.00459405     0.00711527    -0.01603469
O      -1.90155355     2.85610026     5.61392579     0.01025048    -0.00226283    -0.00042269
O       0.00001411     4.75766036     0.76026637     0.01034998    -0.00190545    -0.00075848
O      -1.89878885    -0.95280144     5.67362348     0.00501005     0.00369442     0.00988101
O       0.00279094     0.94878333     0.81998996     0.00496737     0.00352601     0.00949097
O       3.82959834     2.85747740     8.93541145     0.02773861    -0.02198783     0.00382657
O       5.73116456     4.75904039     4.08170315     0.02774710    -0.02203411     0.00393713
O       3.77789632    -0.95507004     8.87623601     0.01021808     0.01920640     0.03273658
O       5.67945945     0.94648964     4.02251394     0.01025228     0.01922492     0.03301066
O      -0.02384461     2.74561439     9.00269411    -0.01901203     0.00402249     0.08088205
O       1.87773967     4.64718840     4.14903791    -0.01905857     0.00333909     0.08092216
O       0.02383120    -0.85399719     8.93167568    -0.01522916    -0.02752573     0.01212327
O       1.92542131     1.04747935     4.07790443    -0.01524819    -0.02731798     0.01293574
O       1.92060214     0.99534415     8.05001389    -0.03358659     0.03937492    -0.01707984
O       3.82216142     2.89688086     3.19631825    -0.03359842     0.03949756    -0.01638359
O       1.88196617    -2.88918417     8.13600762    -0.03546992    -0.02510143     0.01834817
O       3.78354347    -0.98763653     3.28228122    -0.03552932    -0.02517265     0.01852352
O      -1.91986268     0.92886145     8.00922159     0.02330834    -0.01031578     0.02481167
O      -0.01827796     2.83036686     3.15553701     0.02335308    -0.01010675     0.02502867
O      -1.88427704    -2.83313627     8.09263528     0.04366172     0.00544046     0.04303257
O       0.01729127    -0.93160593     3.23892298     0.04363318     0.00550191     0.04351774
O       3.78253275     4.63643444     6.50749798    -0.02062128     0.01835023    -0.06282956
O       5.68413077     6.53801956     1.65379140    -0.02121932     0.01836900    -0.06306430
O       3.78537824     1.07883617     6.43120076    -0.03415943     0.00355481    -0.06428480
O       5.68692656     2.98043336     1.57752526    -0.03347166     0.00362577    -0.06439485
O       0.01838630     4.62796704     6.49979579     0.00371396     0.00786835     0.00900118
O       1.91993205     6.52955683     1.64609542     0.00444210     0.00779996     0.00892096
O       0.02503563     1.07450078     6.41317892    -0.01110614    -0.00120482    -0.06623627
O       1.92663845     2.97605500     1.55950546    -0.01185973    -0.00095002    -0.06626198
