# total energy = -19073.39977300 eV

CRYSTAL
PRIMVEC
        5.17600016     0.00000000     0.00000000
        0.00000000     5.50899976     0.00000000
        0.00000000     0.00000000     9.26300011
PRIMCOORD
22 1
Ti      1.81032601     3.35524798     3.23055901    -0.21134476     0.84815994     0.57432244
Ti      3.75994999     2.41793997     5.95609897    -0.06150750    -1.03193655    -0.22565655
Ti      4.25860202     2.29086700     1.20623298     0.91477982    -0.49356740    -1.29394131
Ti      0.90035699     3.14933898     8.21969102    -0.46617846     1.25706345    -0.20192320
Ti      1.76707402     0.54387700     1.34637398    -1.04986434    -0.39368463    -2.92340426
Ti      3.18796701     4.99979303     7.85266802     0.47386194     0.18306493     2.05853780
Ti      0.74302000     0.14217903     6.06243301    -0.20122438     2.20383218    -1.07370696
Ti      4.38803999     5.04465900     3.43258300    -0.30607889     0.72029507     0.60473166
O       3.45013603     3.47979302     4.40074099    -0.85978107    -0.20079578     0.80868295
O       0.92471502     2.04942999     0.37338498    -0.38450245     0.00646838    -0.10899065
O       4.41673601     3.69472000     8.87934099    -1.04567550    -0.24476911     1.16316570
O       3.25873002     0.71360700     0.21266798     1.75760497     1.63023145    -0.99690243
O       1.55258197     4.94498598     8.80397202    -1.33823604    -1.50663899    -0.39759400
O       4.31916900     0.85674098     4.79185198     0.12339629     0.20567676     0.38867072
O       0.88598798     4.85660602     4.35842501     1.01317520    -1.57938401     0.84242946
O       5.13981999     3.58645600     2.36515698     0.93131922    -1.38377929     0.26643272
O       0.29923899     2.07512800     6.74087302    -1.22840798    -0.94156892    -0.60597170
O       2.62242502     1.88318398     2.29559001     0.38122661     1.67022497     1.22350514
O       2.63528598     3.13625999     7.34139299     0.01310363     0.99995073    -1.37018715
O       5.02244202     0.63313200     1.98668899     0.64134727     0.30385823     0.93355942
O       2.51854001     0.76171498     6.51403002     0.05595237    -1.20645872     0.12613503
O       2.57455400     4.81548001     2.42610100     0.84703431    -1.04624294     0.20810542
