# total energy = -19072.59488644 eV

CRYSTAL
PRIMVEC
        5.17600016     0.00000000     0.00000000
        0.00000000     5.50899976     0.00000000
        0.00000000     0.00000000     9.26300011
PRIMCOORD
22 1
Ti      1.69459198     3.40553601     3.25935202     2.69676066    -0.35656843     0.08729901
Ti      3.89716999     2.18574800     6.02416101    -2.09132760    -0.90618976    -1.39539477
Ti      4.46504301     2.20881399     1.28676698    -0.69784471    -1.46775618     0.72882137
Ti      1.00794100     3.29623498     8.12079001    -2.84849617    -1.15244780     2.70554869
Ti      1.79673499     0.54575198     1.29425299    -0.53642514     0.69865743    -0.64988462
Ti      3.31194102     5.25205298     7.94494600     0.27945999     1.43682040     0.60417527
Ti      0.87193297     0.03134100     5.99112802    -1.19520269     0.53575331    -1.03499873
Ti      4.26064200     4.88911798     3.52455999     0.35430637     0.57914146     1.09501062
O       3.41556302     3.30927799     4.49450501    -0.04118626     0.40817229     0.32668809
O       0.75914699     2.03113998     0.24873701     1.47842446    -0.74584722    -0.37444275
O       4.39140302     3.82066599     8.47081700    -0.90489367    -0.12923166    -0.05756085
O       3.43103601     0.94612601     0.21189998    -0.38668969    -0.39670928    -1.68030807
O       1.63147600     4.81515499     9.03880099     0.52624845    -0.18099802    -0.10113464
O       4.24183700     0.75412002     4.85619501     0.66723289     0.19303258    -0.11012296
O       0.93802600     4.85411302     4.17529598     0.48790429     0.48205348     3.05842733
O       0.11626903     3.70295702     2.42961601    -1.48401841    -2.43449415    -2.31123979
O       4.87868102     1.01349397     7.20546402     0.28248721    -0.09818250     0.41325768
O       2.64134602     2.03788001     2.08503102    -0.50054383     1.40321684     1.56563503
O       1.63925602     3.95515999     6.65564500     2.67873362     0.66087892    -2.59418620
O       5.08795798     0.65707902     2.20272602     0.80054386     1.41245790    -0.47166956
O       2.29884900     1.11328199     6.53584498     0.61481630     0.58385249     0.90975305
O       2.68151702     4.86364900     2.46282098    -0.18028993    -0.52561236    -0.71367320
