# total energy = -19941.43946471 eV

CRYSTAL
PRIMVEC
        4.75943634     0.00000000     0.00000000
        1.00309007     4.96516794     0.00000000
        0.00000000     0.00000000     8.56168161
PRIMCOORD
24 1
Ti      2.31949692     2.94235393     3.17632292     2.39940887    -0.61544828     0.27635127
Ti      3.44302925     2.02281414     5.38535903    -2.39940887     0.61544828    -0.27635127
Ti      4.51336639     2.02281592     1.10448384    -3.85384853    -0.34023575     2.22309926
Ti      1.24915980     2.94235234     7.45719820     3.85384853     0.34023575    -2.22309926
Ti      1.81795201     0.45977014     1.10451817     2.39974105    -0.61460033    -0.28256717
Ti      3.94457418     4.50539807     7.45716387    -2.39974105     0.61460033     0.28256717
Ti      0.74761480     0.45976822     5.38532470     3.85333611     0.34097160     2.23017082
Ti      5.01491139     4.50539999     3.17635725    -3.85333611    -0.34097160    -2.23017082
O       1.85959663     1.74832006     4.36896072    -2.05014134    -1.26818425    -0.73554712
O       3.90292954     3.21684800     4.19272123     2.05014134     1.26818425     0.73554712
O       1.22656342     1.74834006     0.08814732     1.87362348    -1.45796310    -0.44709469
O       4.53596281     3.21682805     8.47353438    -1.87362348     1.45796310     0.44709469
O       3.40138461     0.73426407     0.08811953     2.04983718     1.26844984    -0.73542782
O       2.36114156     4.23090400     8.47356218    -2.04983718    -1.26844984     0.73542782
O       4.03441788     0.73424412     4.36898852    -1.87405054     1.45826546    -0.44716797
O       1.72810825     4.23092400     4.19269343     1.87405054    -1.45826546     0.44716797
O       0.78305752     3.02009655     2.31272388    -0.96946669    -1.57902585    -2.28703362
O       4.97946865     1.94507152     6.24895807     0.96946669     1.57902585     2.28703362
O       2.94559330     1.94502514     1.96814433     0.74193400    -2.37223795    -1.96952823
O       2.81693287     3.02014292     6.59353748    -0.74193400     2.37223795     1.96952823
O       0.28151259     0.53751261     1.96811697    -0.96941604    -1.57917060     2.28708350
O       5.48101359     4.42765550     6.59356483     0.96941604     1.57917060    -2.28708350
O       2.31538793     0.53755894     6.24898538    -0.74160876     2.37210194    -1.96889291
O       3.44713824     4.42760912     2.31269653     0.74160876    -2.37210194     1.96889291
