# total energy = -19960.67861986 eV

CRYSTAL
PRIMVEC
        7.60600008     0.00000000     0.00000000
        0.00000000     7.60600008     0.00000000
       -1.89786986    -1.89786986     4.85670466
PRIMCOORD
24 1
Ti      3.76260699     6.68659800     1.20914599     0.67106049     1.30053877     0.92417232
Ti      3.82103202     3.00782698     1.24905098    -0.42431625    -0.92500124    -0.32565913
Ti      0.04624797     6.64402702     1.16730802    -0.34160589     0.36957128     1.11281243
Ti     -0.02721500     2.82798900     1.25931501     0.28871262    -0.51678241    -2.40767805
Ti      5.79849025     2.79563225     3.71554181    -2.52323478    -1.33618018    -0.07621241
Ti      5.77236323    -1.07648977     3.65155480    -1.08001002     1.59400099    -1.76424434
Ti      1.77433524     2.84688322     3.57744983     2.23476256     0.24906954     0.75376185
Ti      1.87836624    -0.93963978     3.71120583     1.28759197     0.03081828     0.15297530
O       3.77193898     4.90790902     0.66962100     0.09815370    -2.45142102     0.43068231
O       3.61761697     0.98750402     0.82070602     0.70028160     0.62635747    -0.06404466
O       0.12080900     4.78043800     0.82262498    -0.88777243    -0.99733823    -0.57528377
O      -0.01611202     0.95439699     0.66112903     0.22693413    -0.97005881     1.78516258
O       5.88373822     4.66360021     3.99962479    -0.06185279     0.09132125     0.10427704
O       5.72457424     0.81174123     4.01598579    -0.26738172     2.42703024     0.47103013
O       1.77367625     4.82845723     4.07977879    -0.03318935    -0.91187241    -0.81751418
O       1.84581523     1.00149821     4.13990883     0.37008318     0.52854496    -0.59818151
O       3.69155822     2.80073420     3.15130879     0.53322514     0.37939521     0.21392769
O       3.85265724    -1.07773678     3.31733180    -0.37596330     0.15497201    -0.66528939
O      -0.08727376     2.61208421     3.27423682     1.75911215     0.27653176    -1.02335780
O       0.12987920    -0.86089476     3.14957282    -2.16891555    -0.19670489    -0.36353690
O       5.67355298     6.64852799     1.56599000     1.29540119    -0.04135441     0.34277497
O       5.73727302     2.89494098     1.59936500    -0.98175862     0.33499507     0.43401677
O       1.92667399     6.62582798     1.60096798    -0.39744796     0.22737045     0.29353242
O       1.82728498     2.99456400     1.46018302     0.07813020    -0.24380366     1.66187660
