# total energy = -39035.31153809 eV

CRYSTAL
PRIMVEC
        5.93200024     0.00000000     0.00000000
        0.00000000     9.29399984     0.00000000
        0.00000000     0.00000000     9.29399984
PRIMCOORD
46 1
Ti      4.52256802     6.90091098     6.96403902    -0.17422933     0.59689313    -0.21188109
Ti      4.45081100     6.93667902     2.32746998     0.38146443    -0.16304657     0.06346925
Ti      4.46143799     2.39613999     7.01476802    -0.26973479    -0.79667718    -0.67184647
Ti      4.37927502     2.45179901     2.09341102     0.91785666    -1.05694876     0.48552807
Ti      1.47978301     6.99300603     6.98811600     0.24807144    -0.04325703    -1.39784272
Ti      1.50018501     7.12628598     2.35236200    -0.64712402    -1.24839498    -0.29601147
Ti      1.47340102     2.31643600     6.99545400     0.30603158     0.00136680    -0.09145494
Ti      1.36686298     2.04158001     2.59120801     0.56618747     1.00916711    -1.39390764
Ti      2.99452500     4.73377599     4.66075800    -1.12507814    -0.39817327    -0.22717582
Ti      2.93156502     4.80328999     9.02016098    -0.75325432     0.19999462     1.74371561
Ti      2.95966598     9.25112198     4.69441103     1.16898205    -0.18987501     0.38176602
Ti      2.96158303     9.17742198     9.20059900     0.61162479     1.17600862     0.81069021
Ti      0.00550000     4.60396500     4.57028202     1.03840853     0.32234035    -0.17338858
Ti      0.00633399     4.70496298     9.25396800     0.73955444     0.28412397     1.78778511
Ti      0.00459299     9.21739498     4.81812902    -1.27818610    -0.01767557     0.18305027
Ti      0.01378200     9.24364503     9.28223797    -0.88260116     1.22420911     1.04049704
O       4.36234802     5.62754600     5.50367603     0.91894629    -0.24597650     0.08761269
O       4.43130801     5.75464199     0.77961001     0.02788594    -1.41417874     0.20482495
O       4.52681498     0.85965500     5.73343399    -0.25751639     0.08565813    -1.18641080
O       4.35242901     0.76734501     0.99725099     0.37308958     1.25228454    -0.14004213
O       1.48984499     5.66944599     5.54365098     0.48823133    -0.73659999    -0.31226574
O       1.46284097     5.69064297     0.78032599     0.19446392    -1.11898771    -0.05699032
O       1.53466599     0.82558001     5.64427498    -0.37206910     0.71913474    -0.02201894
O       1.51726998     0.85926902     0.93774802    -0.53465004     0.28941839     0.86262111
O       4.45122497     8.41055101     8.25478399     0.26912390    -0.02410847     1.31458368
O       4.48248501     8.29362703     3.89388899    -0.15170080     0.84043557    -0.84135037
O       4.44812400     3.92326901     8.27440302    -0.38673700    -1.15797439     0.52104376
O       4.53687702     3.67115400     3.86653798    -0.88968970     0.13200383    -1.69944788
O       1.37201500     8.26511199     8.52122801     0.93975012    -0.17169679    -1.20239175
O       1.42241099     8.18614102     3.95789901     1.03408085     1.31028479    -0.79888859
O       1.44248601     3.88892901     8.25071102     0.70858678    -0.97480996     0.48983879
O       1.51153100     3.75249103     3.72838499    -0.54546437    -0.56865752    -0.00682294
O       2.97143498     6.08017897     7.81283499     0.04964776     0.55594470    -0.29382706
O       2.91409201     6.01932502     3.10498101     0.72725454    -0.45146891     0.77794874
O       2.94327201     1.40726900     7.97382098    -0.27764196     0.50947482    -0.45246599
O       3.10607699     1.57236998     3.25734501    -0.88359978    -0.79036460    -0.05059856
O       0.07990899     5.94791001     7.80050802    -0.28625028     0.94639051    -0.35197953
O       0.04467298     6.11885500     3.21616703    -1.02914176    -1.04999778     0.05521112
O       5.90075598     1.50844298     7.98626601     0.26232435    -0.12421210     0.04883555
O       3.14999299     7.92923398     6.13748400    -1.65090929     0.12118719    -0.37570902
O       2.90991299     7.84311700     1.40151002     0.82315955     0.78630277     0.01199703
O       2.92857798     3.21480402     6.07616802     0.06968206     0.08528969     0.02794405
O       0.01247398     7.85568501     6.14120899     0.24256593     0.19556409    -0.00009899
O       5.91718598     7.90770398     1.42561002    -0.30172987     0.24308607     0.28568721
O       5.88227197     3.16573601     6.00210099     0.63149454     0.27686035     0.52197836
O       0.14076898     3.18376799     1.40853802    -1.04116064    -0.42034133     0.54818819
