# total energy = -39028.64290942 eV

CRYSTAL
PRIMVEC
        5.93200024     0.00000000     0.00000000
        0.00000000     9.29399984     0.00000000
        0.00000000     0.00000000     9.29399984
PRIMCOORD
46 1
Ti      4.48932198     7.06912801     6.93750099     0.69551426    -0.62167652     0.64446576
Ti      4.56898099     6.90495098     2.39341102     0.97735844     0.44865715     0.39175476
Ti      4.45347398     2.24671102     6.94914099     2.81587477    -1.32048771     2.80622464
Ti      4.05349699     2.58277202     2.06487000     1.43790669    -1.81389467     0.66401129
Ti      1.62338398     7.08429402     7.06733299     0.97210875    -2.19807933     2.51550527
Ti      1.61036898     7.12792500     2.26715801    -0.59616371    -0.78730473    -1.27626266
Ti      1.59344202     2.30629500     6.95843699    -0.26407528    -0.10431561     1.77863095
Ti      0.94671302     2.12409102     2.47109800     1.15773836     1.87329643    -1.18822497
Ti      2.94784500     4.57800500     4.59079299    -1.90272606     2.33205108    -0.05067209
Ti      3.06508703     4.76161098     9.06514502    -2.39226968     0.97126620     1.30706140
Ti      2.92143101     0.15233701     4.61839101     2.32630544    -1.66336449    -0.69759120
Ti      2.89661699     0.13341998     0.09868298    -0.08190509    -1.63760255    -0.00767577
Ti      5.77229698     4.44571000     4.63562002     2.38064778     1.25183280    -0.45566161
Ti      5.87131700     4.63810000     0.00304198     1.39415730     0.68521442    -0.50044279
Ti      0.01317101     8.99879201     4.95879899    -0.68048538     0.33170894    -2.81923752
Ti      5.78001397     0.14576399     9.24126801     1.13099965    -1.56570188     1.43943161
O       4.44112499     5.44852401     5.52283103     0.17180092    -0.93001027    -1.25774300
O       4.27372300     5.74096202     0.89495002     1.76761557    -1.75291734    -0.67877894
O       4.71827999     0.61216299     5.88646099    -0.89919250     0.26614193    -0.57209895
O       4.49954002     0.91896800     1.09467601    -0.20425031     0.98820490    -0.48771788
O       1.50770298     5.32450000     5.54569598    -0.48293126    -1.18690111    -0.64980337
O       1.77333001     5.94501102     0.61259199    -1.60849199    -0.95952474     1.18618505
O       1.68786100     0.74811899     5.79170599    -1.55394910     0.74822189     0.42327367
O       1.51562498     1.10482103     0.62234600    -0.94748735     0.65980291     3.17365496
O       4.48301302     8.52168501     8.28857201    -0.41432520    -1.33372632    -0.30272540
O       4.61757602     8.09277198     3.91998198     0.14286134     1.84246529     1.54338958
O       4.49282000     3.89273702     8.18122898     1.63219988    -0.81837781     0.96533467
O       4.21386898     3.65383900     3.54810002     1.97002420     1.90121811     0.42835469
O       1.48635698     8.19034602     8.59197499     0.51053772     1.12792409    -0.98889009
O       1.54828902     8.57644401     3.65901001    -0.44308069     0.83584101     0.75312807
O       1.66161201     3.59224499     8.60820798    -1.08983164     0.40528134    -0.90317077
O       1.32033201     3.81425898     3.29614698     0.28362647    -2.85357770     1.47674887
O       3.25288298     5.91365398     7.72236399    -1.10409741     2.14571108    -1.53884541
O       2.87030900     6.01442801     3.23006798     0.06795377     0.75891203    -0.12765121
O       3.16244903     1.52286502     8.07730497    -0.60557884     0.22362641    -1.11995958
O       3.47651800     1.54939998     3.65839500    -1.64210301    -1.31556481    -1.83713591
O       0.02932399     6.07959497     7.73556400    -0.28560210    -0.98416878     1.23241659
O       0.06607498     5.86054999     3.01057600    -0.44049981     0.76166620     0.72772479
O       0.00216799     1.43417602     8.05512800     1.24841940     1.16010506    -1.68107400
O       2.95421899     7.70195400     5.92233000     0.46830990     0.45745393     0.69204147
O       3.03713700     8.34670700     1.59710102    -0.70404338    -2.66266036     0.73056664
O       3.27263802     2.84825300     5.91044198    -4.28220321     2.66807896    -2.08396473
O       0.28291800     7.69409100     6.10302102    -1.89101005     0.27759028    -1.02428031
O       5.84112500     8.07794898     1.71486899     1.13055485    -0.57733192    -1.34735780
O       0.10535099     3.00132302     6.08599098     0.60852558     1.21500945    -1.43420456
O       5.81694203     3.12929401     1.28142901    -0.77473769     0.74990725     0.15126603
