# total energy = -19921.82318260 eV

CRYSTAL
PRIMVEC
        6.35841185     0.00000000     0.00000000
        0.00002237     3.64391630     0.00000000
        0.00000000     0.00000000     9.61974568
PRIMCOORD
24 1
Ti      2.30463182     2.15938154     3.56885717    -0.70908480     2.20586283    -2.57319159
Ti      4.05380256     1.48453506     6.05088892     0.70908480    -2.20586283     2.57319159
Ti      5.48372877     1.48453635     1.24097747    -0.70655124    -2.20533679     2.57577890
Ti      0.87470560     2.15938035     8.37876872     0.70655124     2.20533679    -2.57577890
Ti      2.30462073     0.33742344     1.24101602    -0.70905267     2.20631818     2.57327953
Ti      4.05381365     3.30649326     8.37873016     0.70905267    -2.20631818    -2.57327953
Ti      0.87469452     0.33742200     6.05085036     0.70730946     2.20605155     2.57555495
Ti      5.48373986     3.30649465     3.56889572    -0.70730946    -2.20605155    -2.57555495
O       2.01248544     1.28308493     4.90888275     3.86656187    -2.25611532     3.96102012
O       4.34594894     2.36083162     4.71086334    -3.86656187     2.25611532    -3.96102012
O       1.16677353     1.28309962     0.09904066    -3.86506497    -2.25656192     3.95968289
O       5.19166090     2.36081698     9.52070513     3.86506497     2.25656192    -3.95968289
O       4.34593785     0.53887347     0.09900945    -3.86643897     2.25489173     3.95848218
O       2.01249653     3.10504313     9.52073633     3.86643897    -2.25489173    -3.95848218
O       5.19164981     0.53885878     4.90891395     3.86552751     2.25734405     3.96127646
O       1.16678446     3.10505782     4.71083208    -3.86552751    -2.25734405    -3.96127646
O       0.23102941     2.21643648     2.59853339     2.47515642    -0.52746278     1.80045577
O       6.12740497     1.42748012     7.02121270    -2.47515642     0.52746278    -1.80045577
O       3.41024318     1.42744604     2.21137021     2.47777535     0.52842592    -1.80123995
O       2.94819120     2.21647056     7.40837568    -2.47777535    -0.52842592     1.80123995
O       0.23101832     0.39447828     2.21133950     2.47498596    -0.52783533    -1.80079747
O       6.12741606     3.24943832     7.40840638    -2.47498596     0.52783533     1.80079747
O       2.94818011     0.39451236     7.02124335    -2.47689603    -0.52766281    -1.80085532
O       3.41025427     3.24940424     2.59850268     2.47689603     0.52766281     1.80085532
