# total energy = -19072.71525346 eV

CRYSTAL
PRIMVEC
        5.93400000     0.00000000     0.00000000
        0.00000000     9.29699974     0.00000000
        0.00000000     0.00000000     4.64899994
PRIMCOORD
22 1
Ti      4.54368198     6.79159799     2.23919702    -1.37396333     1.64586170     2.53791116
Ti      4.53162801     2.32179302     2.16784102    -2.95838207    -0.54878983     0.62791942
Ti      1.57250502     7.01120401     2.55161602    -0.28528251     0.33649171     0.18837349
Ti      1.56493498     2.45687001     2.20704300     1.89395885    -0.85397295    -0.62265662
Ti      2.86109999     4.60142897     4.33731798     0.80719454    -1.17590347     0.96924634
Ti      2.97288699     9.11189201     0.02561202     0.02861022     0.43876689    -0.11050091
Ti      5.82063298     4.79717899     4.61829899    -0.10772901    -0.83288038     0.76609235
Ti      5.90708599     9.12569200     0.29910500    -0.84871761     0.67192001     0.21259637
O       4.50024002     5.95870602     0.75761698    -0.09990719    -3.44620614    -0.86709869
O       4.25349599     0.86524798     0.93202402     1.55133506     0.02192818    -0.33111322
O       1.49958000     0.99467400     0.81109098    -0.54045020     0.00897135     0.55143627
O       4.43940300     8.16344402     4.03690300     0.36312063     1.82730478    -0.81994027
O       4.61610697     3.82847601     3.68001602    -1.30303197    -0.40523866    -0.37658499
O       1.29672297     8.40460899     3.71993599     0.76490913     1.10429050     1.01425866
O       1.30846902     3.75029198     3.75020699     1.22235946     0.20963909    -0.59582690
O       3.04804699     6.30782499     3.45666099    -1.00094446    -2.21861294    -0.35143162
O       3.08960899     1.57337203     3.09557002    -1.87386670    -0.82017244     1.19122056
O       5.93152499     6.17844401     3.40512098     0.88831133    -0.90210530    -0.91123735
O       2.88572197     7.69305800     1.45748602    -0.37722211     1.46948422    -0.76423447
O       3.03698200     3.37149902     1.31828102    -0.41547860     0.73874275    -0.29805370
O       5.85542501     7.95569798     1.69355501     1.30856498     0.80083774    -0.90391922
O       5.83640501     3.15979398     1.36463002     2.35661078     1.92964398    -1.10645717
