# total energy = -19073.68021079 eV

CRYSTAL
PRIMVEC
        7.60600008     0.00000000     0.00000000
        0.00000000     7.60600008     0.00000000
       -1.89786986    -1.89786986     4.85670466
PRIMCOORD
22 1
Ti      3.79329202     6.53947101     1.38216102     0.08071159     2.39778213    -0.49677665
Ti      3.83036300     2.89517398     1.35651498    -0.01789643    -0.68863347    -1.49567117
Ti      0.09735099     6.61791498     1.18221002    -0.33618446     0.95166076    -0.58424150
Ti     -0.14157598     2.92356302     1.03673999    -0.05906160    -0.92308577     0.96876401
Ti      5.70276124     2.80996623     3.51746780    -0.20746033     0.55696132    -0.50597298
Ti      5.89878622    -0.89005978     3.69815384    -0.34718416     0.74355303     0.62516114
Ti      2.01198424     2.86508321     3.75215680    -1.53433723     0.32984386    -0.20191241
Ti      1.60777421    -0.84020880     4.02371379    -0.27234446     0.40677978    -0.43818170
O       3.62827497     4.82572498     0.93006802     0.07496543    -2.19797340     0.24172570
O       3.90966101     0.95874202     1.00008399    -0.91477956     0.11336358     0.98696357
O       0.13279301     4.79741601     0.54827700     0.54217155    -0.86424322     1.03487995
O       0.13563802     0.78079902     0.83066498    -0.08803101     1.99171352     0.75218834
O       5.64140822     4.90493822     3.88742181     0.06441824    -1.67501905     0.43804981
O       4.99699320     0.86438024     4.08714679     1.38135397     0.08216220    -0.91793482
O       1.70629320     4.80670022     4.33015382     0.57559179     0.25920972    -0.30206745
O       2.34200420     0.97784822     4.30374481    -1.08073508     0.65121439    -1.17677070
O       3.80324923     3.04717623     3.22524083    -0.59886157     0.68480690     1.40901108
O       0.24492921     3.24872122     2.91620084     0.01440872    -1.47206355     0.30922464
O       5.82038602     6.69712001     1.77981598    -0.22977083    -0.65408143    -0.41473426
O       5.65310002     2.69116202     1.59557302     1.91003314     0.40302494     0.61027162
O       1.92100100     6.65552599     2.13126402     0.28803025    -0.30262487    -0.51201739
O      -0.07969875    -0.05541676     3.96836682     0.75496230    -0.79435162    -0.32995879
