# total energy = -19073.75658842 eV

CRYSTAL
PRIMVEC
        7.60600008     0.00000000     0.00000000
        0.00000000     7.60600008     0.00000000
       -1.89786986    -1.89786986     4.85670466
PRIMCOORD
22 1
Ti      3.74808002     7.11861699     1.03285800    -1.37847176    -1.16214137     1.82213326
Ti      3.93764501     2.79130802     1.39465903     0.72499994     0.97228719    -2.54617443
Ti     -0.15086499     6.68672601     1.27703700     1.18098268     0.00043555     1.89345800
Ti      0.03691498     2.77106001     1.30212900    -0.69455935     0.65543743     1.23986842
Ti      5.73292625     2.81347425     3.77592379     1.63880094    -0.11063487    -0.65070017
Ti      5.64147124    -0.96321478     3.84323879     1.82894617     0.50479490    -1.10311731
Ti      2.07563622     2.77723021     3.86973284    -1.44938847    -0.93151462    -1.03945291
Ti      1.79925022    -0.80048579     3.64976079    -0.11267658     1.51060054    -1.57192935
O       3.53290998     4.47337401     0.73192903    -0.61933244     1.17623951     2.14832821
O       3.16518403     1.27317400     0.64345001     0.61103626    -0.56989448     1.98251333
O       0.05755797     4.84348603     0.82186302    -0.24611174    -0.95654586     1.59509705
O      -0.07062802     0.93735003     0.85782802    -0.06757710    -0.43880751     0.83866897
O      -1.62051680     4.72021524     4.15941881    -1.09524433     0.77072240    -0.71327930
O       5.49476622     0.92192721     4.33634483     0.26195951     0.61885268    -2.48493973
O       1.98085523     4.80603520     4.10154682     0.37126358     0.26733158    -0.64482546
O       2.62709824     0.92295323     4.09888781    -1.18192962    -1.49485922    -0.64176584
O       3.88500421     2.77817924     3.24255080    -0.05546566     1.27816502     0.76655669
O       0.08840022     2.57695525     3.19360280     1.12868180     0.33303100     1.07149633
O       5.41807801    -0.61723901     1.90149002     0.13491020    -0.45426936    -1.04279612
O       5.78532300     2.70763700     1.67533199    -0.34940456     0.51336567     0.92975984
O       1.89906999    -0.58726202     1.73050301     0.13371130    -1.31267283     0.09470405
O      -0.05388279    -0.58715878     3.45220680    -0.76513102    -1.16992385    -1.94360353
