# total energy = -19958.94173332 eV

CRYSTAL
PRIMVEC
        7.60600008     0.00000000     0.00000000
        0.00000000     7.60600008     0.00000000
       -1.89786986    -1.89786986     4.85670466
PRIMCOORD
24 1
Ti      3.82221299     6.51705797     1.19759098    -0.18390902     0.35671550     1.62532192
Ti      3.67983801     2.76149402     1.11129202     0.27464971     0.43335317     1.92532015
Ti      0.10329900     6.70286698     1.27893098    -0.94674944     0.92406022    -1.00886423
Ti     -0.02224100     3.00432298     1.26164699    -0.42892470    -1.07429600    -2.21670852
Ti      5.84462022     2.91759125     3.64986684    -1.87237803    -0.94120871    -0.95620159
Ti      5.72694221    -0.94118577     3.61524483    -0.94465373     0.98244254     1.55363903
Ti      1.93354620     2.78851725     3.62150283     1.16407382    -0.94594546     0.31353638
Ti      1.82227520    -1.11357780     3.70736083     1.04289202     0.73110143     0.17343897
O       3.73176400     4.67282001     0.70070201     0.43216378     1.41058151     0.85729661
O       3.65201000     0.89605102     0.84414900     0.33420985    -1.38540834    -0.00816891
O      -0.04504399     4.84250303     0.70617101     0.14296882     0.01141853     0.91125972
O      -0.15140899     1.00350999     0.69236001     0.69258500     0.05722224     1.69420746
O       5.74605323     4.83130622     4.02550082     0.06188930    -0.70246010     0.86670506
O       5.86429524     1.01708121     3.82368680    -0.32086994     0.28566869     1.44295839
O       1.68003225     4.65019324     3.98583782     0.92056455     0.49241812     1.67402661
O       1.90552420     0.82670324     4.12376083    -0.04318478     1.36657886    -1.99836933
O       3.83724522     2.81724220     2.94028581     0.04308065    -0.23802176     3.55098300
O       3.64666521    -0.98483178     3.19027280     1.90026680    -0.32698428     0.00432100
O      -0.01416279     3.02199522     3.09108079     1.60832075    -0.76522409     2.50173881
O       0.01171323    -0.90796476     3.31541983     0.01245546    -0.01002833    -0.88778117
O       5.73260102     6.53156198     1.80911202    -1.04750921     0.06416036    -3.31575423
O       5.82841401     2.95482998     1.73359801    -1.42424513     0.21640032    -2.45410422
O       1.90405499     6.63229399     1.75687101    -1.01672461    -0.16643734    -1.95309296
O       1.89179401     3.23424901     1.88014698    -0.40097166    -0.77610680    -4.29570768
