# total energy = -19911.71315165 eV

CRYSTAL
PRIMVEC
        6.48208550     0.00000000     0.00000000
        3.24656841     6.08724985     0.00000000
        0.00000000     0.00000000    12.00544300
PRIMCOORD
24 1
Ti      4.27335769     3.60729863     4.45393375     0.13777261    -2.40551138     0.37945512
Ti      5.45529639     2.47995138     7.55150938    -0.13777261     2.40551138    -0.37945512
Ti      6.91303636     2.47995355     1.54873985    -0.85954016    -1.42050160     0.62155594
Ti      2.81561792     3.60729674    10.45670334     0.85954016     1.42050160    -0.62155594
Ti      2.65007373     0.56367391     1.54878801     0.13777261    -2.40551138    -0.37945512
Ti      7.07858047     5.52357633    10.45665524    -0.13777261     2.40551138     0.37945512
Ti      1.19233365     0.56367157     7.55146122     0.85954016     1.42050160     0.62155594
Ti      8.53632054     5.52357861     4.45398184    -0.85954016    -1.42050160    -0.62155594
O       3.19479298     2.14342420     6.12628569     1.77675713     2.00589495    -0.96699791
O       6.53386118     3.94382585     5.87915743    -1.77675713    -2.00589495     0.96699791
O       2.33264474     2.14344870     0.12360277     0.37851923    -1.31399593     1.84400230
O       7.39600950     3.94380140    11.88183997    -0.37851923     1.31399593    -1.84400230
O       4.91057710     0.90020090     0.12356381    -1.77675713    -2.00589495    -0.96699791
O       4.81807704     5.18704909    11.88187893     1.77675713     2.00589495     0.96699791
O       5.77272542     0.90017644     6.12632459    -0.37851923     1.31399593     1.84400230
O       3.95592868     5.18707363     5.87911847     0.37851923    -1.31399593    -1.84400230
O       2.21025608     3.70261039     3.24296966     0.66412211     3.24018614     3.00787788
O       7.51839808     2.38463967     8.76247340    -0.66412211    -3.24018614    -3.00787788
O       4.74835614     2.38458281     2.75979003     0.59338152     2.13071923     1.99084834
O       4.98029801     3.70266724     9.24565284    -0.59338152    -2.13071923    -1.99084834
O       0.58697200     0.65898543     2.75975171     0.66412211     3.24018614    -3.00787788
O       9.14168214     5.42826456     9.24569116    -0.66412211    -3.24018614     3.00787788
O       3.35701393     0.65904228     8.76251165    -0.59338152    -2.13071923     1.99084834
O       6.37164021     5.42820771     3.24293134     0.59338152     2.13071923    -1.99084834
