# total energy = -19961.56363650 eV

CRYSTAL
PRIMVEC
        7.60600008     0.00000000     0.00000000
        0.00000000     7.60600008     0.00000000
       -1.89786986    -1.89786986     4.85670466
PRIMCOORD
24 1
Ti      3.83177400     6.63970300     1.15838599    -0.45134987    -0.27220588     0.26019856
Ti      3.76929097     2.82279899     1.19551502     1.16636133     0.48279010    -0.06446195
Ti     -0.01506001     6.71839701     1.23849099     0.82932660    -1.43315606    -0.50100226
Ti     -0.04568101     2.78932599     1.19796897    -0.82824802     1.12416180     1.83785196
Ti      5.67164324     2.81888223     3.71516382     1.27913047     1.40481015     0.03675368
Ti      5.70392823    -0.88673978     3.61618984     0.56455507    -1.58662655     0.17694236
Ti      1.91967922     2.80535720     3.60055180    -0.70553051     0.10232352     0.42059972
Ti      1.95680624    -0.97276976     3.60511881    -0.59069394     0.08834159    -0.23443687
O       3.81507100     4.74744797     0.77643701    -0.14718157    -0.51831813     0.16298049
O       3.81644199     0.91384101     0.72320199     0.01438096     0.94301440     0.44532912
O      -0.11043199     4.74701998     0.82625000     0.44476887    -0.25667178     0.06178903
O      -0.10815298     0.89971801     0.83503001     0.19060186     1.54890382    -0.66334383
O       5.82488625     4.73647824     4.14261282    -0.20407933     0.55061917    -0.59143314
O       5.65310420     0.93365325     4.16384183     0.05316041    -0.56140135    -1.26244940
O       1.80510922     4.68332122     4.07986579     0.30342062     0.85498339    -0.55681528
O       2.02317925     0.95073022     3.96700281    -0.25416598    -0.22737122     0.92118778
O       3.91480324     2.85233322     3.17590579    -2.39553987    -0.04669202     0.18135463
O       3.79406023    -1.01133075     3.18237181     0.80794890    -0.24422352     0.20977201
O      -0.03545779     2.74022024     3.15248081     0.55882922    -0.22096377     0.97482024
O      -0.04520475    -0.85799180     3.25309682     0.35453109    -0.17735682     0.28511411
O       5.75919900     6.67990698     1.58678201    -1.93352454     0.03058997     0.68556254
O       5.67549099     2.88285198     1.68767701     0.01124652    -0.29502468    -1.02039743
O       1.90884299     6.86869599     1.69794098     0.16565675    -0.82049794    -0.53111478
O       1.88398701     2.97984102     1.71567001     0.76639549    -0.47002817    -1.23480078
