# total energy = -19519.87822431 eV

CRYSTAL
PRIMVEC
        5.17575250     0.00001323     0.00000000
        0.00001429     5.50856584     0.00000000
        0.00000000     0.00000000     9.26345890
PRIMCOORD
23 1
Ti      1.84782564     3.30673444     3.40888851     0.04275746     0.05503808     0.10046641
Ti      3.30981990     2.20178014     5.76228349    -0.00486787    -0.00799382     0.05819334
Ti      4.52583798     2.02119071     1.36221632    -0.04200901    -0.14007684    -0.00222683
Ti      0.83663850     3.25758540     7.95914724    -0.00374713     0.00322082     0.02866884
Ti      1.87190429     0.58193732     1.13373142    -0.07776330     0.05167199     0.09382422
Ti      3.21602785     5.10895844     7.97523640     0.00004448    -0.05067620    -0.03336265
Ti      0.65786717     0.52599102     5.78256033     0.10905595     0.14496759    -0.04939888
Ti      4.39939437     4.89331783     3.45186164     0.05148173     0.10288222     0.01367545
O       1.62633805     1.94464411     4.71993749    -0.04598574    -0.12400358    -0.01892950
O       3.52822784     3.58824522     4.52770587    -0.00645810    -0.03490557     0.07272625
O       0.86218797     1.98462105     0.08279738    -0.02945328     0.08145206    -0.00695946
O       3.56014670     0.84986567     0.09819615     0.04195271    -0.01204151    -0.09359153
O       1.68622237     4.65667268     9.19552725     0.07629546     0.02595710    -0.08295487
O       4.22840319     0.82440092     4.74073085    -0.07478288    -0.08794847    -0.07968032
O       0.94975370     4.66267204     4.56899142    -0.03776386     0.00335323     0.01805918
O       0.16940918     3.40768934     2.45354963    -0.08103786    -0.09891783    -0.08622506
O       4.98960061     2.12996149     6.78693706    -0.03875579     0.09700673    -0.00793957
O       2.75496550     2.19561115     2.09526486     0.06123033     0.03737820     0.09232089
O       2.52107436     3.35538906     7.17997595     0.06382457    -0.00510878    -0.07899897
O       0.20859151     0.59429404     2.19696977     0.08221054     0.07496440    -0.03965182
O       4.97234261     4.84816705     7.27198410    -0.00589966    -0.06954091     0.00214739
O       2.37241534     0.64966149     6.75416854    -0.05811235     0.03629731     0.09162618
O       2.78819326     4.94466454     2.48476132    -0.02221691    -0.08297596     0.00821108
