# total energy = -19961.23452365 eV

CRYSTAL
PRIMVEC
        7.60600008     0.00000000     0.00000000
        0.00000000     7.60600008     0.00000000
       -1.89786986    -1.89786986     4.85670466
PRIMCOORD
24 1
Ti      3.74941502     6.63947398     1.29522498    -0.50563771    -0.39466577    -1.56527764
Ti      3.79424602     2.88754398     1.22545201    -0.82574094     0.35043635    -0.77656240
Ti     -0.03971200     6.62661799     1.24437099     0.63445491     0.80374052    -0.55141519
Ti     -0.03239703     2.90091201     1.19490800     0.79854483    -0.89694330     0.28935514
Ti      5.71176720     2.85312423     3.61635081     1.42154624     0.30211733     0.10351985
Ti      5.75179824    -0.96602678     3.63933182     0.89758479    -0.26907942     0.50527132
Ti      1.94411620     2.79094125     3.57199883    -1.84691690     0.88483931     1.06680792
Ti      1.98125322    -1.01504478     3.67498683    -1.67021726    -0.71275505     0.02497288
O       3.61886499     4.76378701     0.78127200     0.92284177    -0.11470338     0.00294031
O       3.60987299     0.96797499     0.85630298     0.86273733    -0.01867136    -0.17322017
O       0.05814901     4.77451402     0.67821198    -0.73994191    -0.11223332     0.44867027
O       0.05944402     0.97987698     0.75397000    -0.50287146     0.76766587     0.17133221
O       5.95975321     4.82278122     4.07469880    -0.92350023    -1.31712779    -0.15528235
O       5.92929223     0.97607723     3.94472583    -1.31011510    -0.03627674     0.54102561
O       1.70409923     4.72154925     4.07566381     0.88383967     0.61141370     0.53173441
O       1.76062621     0.92017224     4.07193083     1.01814283    -0.08194803    -0.07035698
O       3.78247125     2.97213323     3.22853279     0.68921634    -0.54831006     0.01305324
O       3.82110420    -1.25990176     3.27904582    -0.32860330     0.91476671    -0.32035314
O       0.00553922     2.77435223     3.19225583    -0.86409384     0.32359788    -0.83544891
O      -0.02220179    -1.08538477     3.16339779     0.73484341     0.52850433    -0.11881638
O       5.71754301     6.70409297     1.57707198    -1.04306814     0.05619302     0.05304882
O       5.66993902     2.94588900     1.56082301     0.00570451    -0.04636472     0.02064339
O       1.87386803     6.72669302     1.63216600     0.78372833    -0.15112487     1.18369005
O       1.82279898     3.09422501     1.69147603     0.90752236    -0.84307172    -0.38933201
