# total energy = -19074.28952851 eV

CRYSTAL
PRIMVEC
        5.17600016     0.00000000     0.00000000
        0.00000000     5.50899976     0.00000000
        0.00000000     0.00000000     9.26300011
PRIMCOORD
22 1
Ti      1.82391099     3.36185000     3.31910602     0.50542328     0.80756066    -0.56332608
Ti      3.54796100     2.32766101     6.08303299     0.53238105    -0.23036039    -1.42858875
Ti      4.40433500     2.22947000     1.18157998    -0.21270719     0.43564377    -1.23282694
Ti      0.67328798     3.21907401     8.05826602     0.20231710     1.57295753     1.94341018
Ti      1.85815501     0.54255501     1.28294399    -0.40802831     0.14430168    -1.89813510
Ti      3.22282101     5.00170801     7.94409201     0.59485836     0.59186894     1.93777741
Ti      0.61882400     0.15645401     6.03274098     0.67357477     1.74370558    -1.73792780
Ti      4.39163099     4.99693198     3.36396200     0.78494626     0.11939899     0.69068727
O       3.43401797     3.46461903     4.46727698    -0.39008894    -0.27050252     1.38599815
O       0.90539698     2.12542100     0.26341200     0.21376211    -0.90977079    -0.48001794
O       4.26487902     3.79562098     9.11949099     0.55531504    -0.79175737    -0.25356383
O       3.41914598     0.82987799     0.14139801     1.15942577     1.24441053    -0.88996686
O       1.68566201     4.89125200     9.03759102    -2.04088357    -0.65098479    -0.39962671
O       4.60779699     0.94036300     4.77431700    -1.41705426    -0.75321344    -0.23821434
O       1.01739200     4.81338298     4.27845400    -0.32727199    -1.21669635     1.56101450
O       0.09471299     3.46570098     2.37705098     0.21921388     0.06567294     1.23758914
O       0.19772697     2.14200500     6.64478501    -0.52328911    -0.90554081     0.14966037
O       2.75924898     1.97140899     2.23008898    -0.48109317     0.55827823     1.03722865
O       2.50820200     3.30530598     7.45933400    -0.14663932    -0.69036537    -2.37474761
O       0.04949300     0.65708098     2.03915199     0.14239546    -0.35587963     0.77780322
O       2.46230699     0.68664400     6.44797298    -0.26365207    -0.34319046     0.46647671
O       2.68337798     4.72226898     2.33231200     0.62709461    -0.16553668     0.30929637
