# total energy = -4988.72417724 eV

CRYSTAL
PRIMVEC
        3.30947931     0.00000000     0.00000000
        0.00000000     3.83273006     0.00000000
        0.00000000    -0.00006047     4.61288380
PRIMCOORD
6 1
Ti      1.65473970     1.91633464     2.30644190     0.00000000     0.00000000     0.00000000
Ti      0.00000000     0.00000000     0.00000000     0.00000000     0.00000000     0.00000000
O       1.65473970     0.74693079     0.89898310     0.00000000    -0.35722921    -0.43956162
O       1.65473970     3.08573843     3.71390066     0.00000000     0.35722921     0.43956162
O       0.00000000     1.16937941     3.20542602     0.00000000     0.35715310    -0.43904071
O       0.00000000     2.66328987     1.40745778     0.00000000    -0.35715310     0.43904071
