# total energy = -4985.34247405 eV

CRYSTAL
PRIMVEC
        3.94511913     0.00000000     0.00000000
        0.00000000     2.97623480     0.00000000
        0.00000000    -0.00007869     5.21803103
PRIMCOORD
6 1
Ti      1.97255951     1.48807790     2.60901557     0.00000000     0.00000000     0.00000000
Ti      0.00000000     0.00000000     0.00000000     0.00000000     0.00000000     0.00000000
O       1.97255951     0.58000893     1.01691742     0.00000000    -1.14498285     0.37000579
O       1.97255951     2.39614687     4.20111372     0.00000000     1.14498285    -0.37000579
O       0.00000000     0.90803768     3.62593406     0.00000000     1.14476174     0.37109440
O       0.00000000     2.06811812     1.59209707     0.00000000    -1.14476174    -0.37109440
