# total energy = -19074.84363621 eV

CRYSTAL
PRIMVEC
        7.60600008     0.00000000     0.00000000
        0.00000000     7.60600008     0.00000000
       -1.89786986    -1.89786986     4.85670466
PRIMCOORD
22 1
Ti      3.83578400     6.81026302     0.95436202     0.57513645     0.52191845     2.36817741
Ti      3.96515800     3.09074202     1.19856102     0.49322313    -2.15221160     0.60015664
Ti      0.00342103     6.55158197     1.17796602    -2.23771110    -0.07719072    -0.59596522
Ti      0.02422600     2.72077197     1.09738799    -0.72009453    -0.80845644     1.17364347
Ti      5.73212121     2.58068320     3.73270683     0.33206350     0.90640547    -1.50399923
Ti      6.06455422    -1.18801780     3.79176381    -0.63495884     0.46765658    -2.02219550
Ti      1.96722320     2.97529523     3.50893482    -0.50131131    -1.41546326    -0.20982601
Ti      1.36308524    -0.67054177     3.76495580     0.63446493    -0.95867396     1.08614648
O       3.92450999     4.83705202     0.80708998    -0.29190028     2.05714092    -0.53058282
O       3.76656799     1.13501101     0.84612500    -0.59866771    -1.92018951     0.32238612
O      -0.06230401     4.56635098     0.79598302    -0.12668833     1.27943437    -0.33499893
O       7.19271800     0.77766402     0.58873102     0.65241433     0.66594965     2.70032164
O       5.52723621     4.61124823     4.09852183     1.31299294    -0.72990535    -0.65984945
O       5.53577920     0.72255222     3.95687182     0.85101978     0.59919787     0.73150663
O       1.88496223     4.91051320     4.02596581    -0.06084646     0.17269438    -0.98807145
O       2.17187721     0.94874824     4.06692783    -0.56580694     1.61958373    -0.20633856
O       3.88924921     2.71938622     3.19718279    -1.26588748     0.86126357    -0.29528102
O       0.07767422     2.55350624     3.28730681    -0.15761614     0.25877674     0.03378842
O       5.70387701     6.65707600     1.95423698    -0.41214362    -0.47524777    -1.17343829
O       5.79864498     2.86485302     1.63810601    -0.42267126     0.05390088     0.30100970
O       1.67409901     6.75510698     1.94401698     1.54648904    -0.09519410    -1.06732934
O       1.81176098     3.18960698     1.63181701     1.59849965    -0.83139043     0.27074035
