# total energy = -19961.45827670 eV

CRYSTAL
PRIMVEC
        7.60600008     0.00000000     0.00000000
        0.00000000     7.60600008     0.00000000
       -1.89786986    -1.89786986     4.85670466
PRIMCOORD
24 1
Ti      3.88956698     6.71902900     1.18500201    -1.46177579     1.29577220     0.63688949
Ti      3.86397999     2.96701900     1.16913998    -0.77609163    -1.43179569     0.71804459
Ti     -0.03000102     6.54479898     1.22180301     1.15624326     1.18557699    -0.11554336
Ti      0.02555598     2.82507397     1.28538398     0.34432432    -1.10507109    -1.17320124
Ti      5.70620920     2.71936923     3.63705582    -0.80298847    -0.06428249     0.24199001
Ti      5.68340420    -1.04431278     3.66545581    -0.39201856     0.06978285     0.08875554
Ti      1.91685420     2.92100423     3.65947680     0.64442771     0.28698098    -1.05307565
Ti      1.86879824    -0.83580477     3.65510982     0.22731080    -0.23832438    -0.99325737
O       3.85268301     4.80356299     0.73771299    -0.21055723     0.81062130     0.54407494
O       3.75274101     0.95682602     0.75796100     0.27121600     1.11275869     0.16689680
O      -0.00718199     4.67852301     0.76107098    -0.06446632    -0.77736459     0.81292219
O      -0.05355702     0.82554202     0.68723101    -0.10869780     1.18049263     1.24304785
O       5.66144922     4.66443520     4.07945182     0.00344014    -0.47917282    -0.83883146
O       5.62635921     0.83902021     4.07200984     0.34962799     1.18685251     0.56119952
O       1.89223524     4.92414523     3.98425182     0.08521950    -2.40554069     0.09235072
O       1.91692025     1.08806124     4.08875983    -0.13530564    -1.00586221    -0.11409480
O       3.80715721     2.76854424     3.18328379    -0.78674320     0.63946368     0.37920598
O       3.76153223    -0.76863175     3.17381480     0.22468570    -0.73221369    -0.12523874
O      -0.01985478     2.68534821     3.26804582     0.51251567     0.65050065    -0.69120509
O      -0.05793877    -0.95065476     3.15971080    -0.19662982    -0.01934910     0.78805807
O       5.66376199     6.64578098     1.61703597     0.21940543    -0.28578542    -0.35292569
O       5.64337998     2.73015699     1.67494299     1.38449251     0.39721193    -0.54804138
O       1.82187901     6.82433401     1.67984302     0.35337589    -0.80324944    -0.62732626
O       1.91847402     2.78873199     1.58914198    -0.84101073     0.53199667     0.35930537
