# total energy = -19960.13343519 eV

CRYSTAL
PRIMVEC
        7.60600008     0.00000000     0.00000000
        0.00000000     7.60600008     0.00000000
       -1.89786986    -1.89786986     4.85670466
PRIMCOORD
24 1
Ti      3.74012701     6.59971001     1.26092498     0.53609783    -2.27849241     0.09560291
Ti      3.72779702     2.73482698     1.19211802     0.40783265     2.00604588     0.78287292
Ti      0.07588402     6.73624901     1.27821198     0.09477244     0.12556681    -0.12036135
Ti      0.01539398     2.96271102     1.08032700    -0.85595681    -0.24602252     0.54328510
Ti      5.70648522     3.10472521     3.62647281     0.11475275    -0.90075136    -1.29920128
Ti      5.73144624    -0.86984775     3.61379780    -0.62014671     0.38725482    -0.28761116
Ti      1.76666021     2.73011021     3.64282280     0.93381293     0.27847886     0.48783821
Ti      1.86706323    -1.11968175     3.76476783     1.04918480     0.13516063    -1.34702021
O       3.68184697     4.65470998     0.69121302    -0.18519072    -0.13828966     0.88604567
O       3.73364300     0.81205498     0.87861701     0.13621478     1.68278790     0.06818928
O       0.20194901     4.78587000     0.82148100    -0.66976517     1.38732227    -1.28185070
O       0.22149698     1.03571699     0.81193602    -1.32213681    -0.91297542    -0.75825768
O      -1.53061879     4.93488520     4.04523479    -1.09408862    -1.86520825     0.82708974
O       5.76699124     1.05157320     3.83893679    -0.69824734    -0.54738447     1.27250679
O       1.70491422     4.70778222     4.12261982     0.17263833    -0.32995519    -0.13983387
O       2.01850524     0.89436924     4.06445282    -0.21022324    -1.28784034     0.08017705
O       3.75985421     2.87586721     3.13170981     0.89644630     0.34573329     0.44464520
O       3.76334424     6.22447323     3.22205682     1.38800079     1.38747937     0.59256571
O      -0.01013179     2.91492224     3.20648382    -1.36582887    -0.30883948    -0.22224650
O       0.03703923    -0.84142876     3.28655183    -0.47909054     0.31713181    -1.39784632
O       5.66798599     6.54097398     1.46847602     1.60091880     0.59117243     1.30134378
O       5.71953600     3.14997298     1.56312498    -0.16981937    -1.01168293     0.58864272
O       1.94827601     6.42989698     1.72246401    -1.80268080     0.90510167     0.09918266
O       1.76755298     2.75072002     1.69570600     2.14250286     0.27820632    -1.21575866
