# total energy = -19517.79373123 eV

CRYSTAL
PRIMVEC
        5.93400000     0.00000000     0.00000000
        0.00000000     9.29699974     0.00000000
        0.00000000     0.00000000     4.64899994
PRIMCOORD
23 1
Ti      4.54854898     7.02323401     2.19730201    -1.07846582     0.57549898     0.46611007
Ti      4.44612402     2.37365900     2.37807298     0.83454440    -0.29191031     0.27332277
Ti      1.37865099     6.93205603     2.21971198     1.04162652     1.60797006     0.82993724
Ti      1.49296598     2.34233399     2.30360499    -0.75443548    -0.61847704     0.10517667
Ti      3.01850800     4.48736498     0.17326200     0.03148703    -0.56979035    -0.80153219
Ti      3.02348602     9.27665097     4.58878301    -1.77431895    -0.69815993    -0.40133958
Ti      0.07633498     4.68939998     0.03855702    -0.17711025    -0.71297360    -0.61393107
Ti      5.89920501     0.13292001     4.64502201     1.72407675    -0.41176927    -0.98642286
O       4.37269502     5.50489001     1.00274898     0.07137436     0.82917748    -0.34568572
O       4.32057900     0.90163998     0.93153199     0.92812642     0.20556055    -0.31819573
O       1.53544801     5.40099902     1.06372200     0.05401247     1.17883504    -0.08048687
O       1.50906598     0.92676801     0.83126401    -0.61535752     0.36283216     0.11338569
O       4.44584599     8.43187199     3.62735601    -0.00621307    -0.25842656     0.34931278
O       4.52537599     3.69589398     3.81831099    -1.07535993     0.19036686    -0.14386227
O       1.37377801     8.34556202     3.68158000     0.36298899     0.01457687     0.33260831
O       1.42166199     3.63271699     3.83014599     0.68773513     0.90093571    -0.02397375
O       2.92042298     1.40553600     3.20819000     0.28877973     0.29765929    -0.19569239
O       5.88356899     6.05263699     3.26700799    -0.37428360    -0.02387836    -0.15398754
O       0.08787898     1.39632302     3.07655398    -1.44494714    -0.47560181     1.23520007
O       2.88396802     7.83195999     1.33371299     0.41953143    -0.98071347     0.91990274
O       2.92890898     3.40262099     1.61018101     0.86897046    -0.90030039    -0.14541368
O       0.00595600     7.85657202     1.40973603    -0.17181815     0.64842243    -1.14516952
O       5.83467603     3.31699498     1.39842100     0.15905596    -0.86983486     0.73073659
