# total energy = -19939.96258768 eV

CRYSTAL
PRIMVEC
        5.70303879     0.00000000     0.00000000
        2.59980291     5.48479563     0.00000000
        0.00000000     0.00000000    10.48923610
PRIMCOORD
24 1
Ti      3.60771800     3.25028478     3.89143176     1.34790982    -3.35325661     0.91424606
Ti      4.69512350     2.23451078     6.59780440    -1.34790982     3.35325661    -0.91424606
Ti      5.97766544     2.23451263     1.35314443    -3.15276037    -0.56793530     0.88906183
Ti      2.32517617     3.25028314     9.13609190     3.15276037     0.56793530    -0.88906183
Ti      2.30781668     0.50788705     1.35318647     1.34790982    -3.35325661    -0.91424606
Ti      5.99502486     4.97690868     9.13604986    -1.34790982     3.35325661     0.91424606
Ti      1.02527471     0.50788503     6.59776236     3.15276037     0.56793530     0.88906183
Ti      7.27756689     4.97691068     3.89147385    -3.15276037    -0.56793530    -0.88906183
O       2.72048253     1.93128976     5.35257690     1.37080910     1.95290090    -1.11588181
O       5.58235898     3.55350580     5.13665932    -1.37080910    -1.95290090     1.11588181
O       1.96195022     1.93131191     0.10799258     0.62348041    -1.02583866     1.12209720
O       6.34089136     3.55348375    10.38124335    -0.62348041     1.02583866    -1.12209720
O       4.28245764     0.81110796     0.10795851    -1.37080910    -1.95290090    -1.11588181
O       4.02038388     4.67368766    10.38127737     1.37080910     1.95290090     1.11588181
O       5.04099001     0.81108585     5.35261092    -0.62348041     1.02583866     1.12209720
O       3.26185145     4.67370978     5.13662524     0.62348041    -1.02583866    -1.12209720
O       1.78855205     3.33616366     2.83340436     0.60337643     1.86472591     1.76730781
O       6.51428940     2.14863192     7.65583185    -0.60337643    -1.86472591    -1.76730781
O       4.07716638     2.14858088     2.41124708     1.31679431     1.13339952     0.42263244
O       4.22567513     3.33621468     8.07798891    -1.31679431    -1.13339952    -0.42263244
O       0.48865070     0.59376576     2.41121357     0.60337643     1.86472591    -1.76730781
O       7.81419075     4.89102982     8.07802241    -0.60337643    -1.86472591     1.76730781
O       2.92577377     0.59381679     7.65586525    -1.31679431    -1.13339952     0.42263244
O       5.37706773     4.89097877     2.83337086     1.31679431     1.13339952    -0.42263244
