# total energy = -19940.99252039 eV

CRYSTAL
PRIMVEC
        6.69613008     0.00000000     0.00000000
        0.00002527     4.27602423     0.00000000
        0.00000000     0.00000000    10.22685885
PRIMCOORD
24 1
Ti      2.42703987     2.53396798     3.79409171     0.22597614     0.92741165    -0.10863943
Ti      4.26911504     1.74205619     6.43276725    -0.22597614    -0.92741165     0.10863943
Ti      5.77498970     1.74205763     1.31929691     0.22666211    -0.92761528     0.11049834
Ti      0.92116526     2.53396671     8.90756210    -0.22666211     0.92761528    -0.11049834
Ti      2.42702745     0.39595592     1.31933793     0.22597614     0.92741165     0.10863943
Ti      4.26912745     3.88006836     8.90752113    -0.22597614    -0.92741165    -0.10863943
Ti      0.92115279     0.39595437     6.43272623    -0.22666211     0.92761528     0.11049834
Ti      5.77500211     3.88006991     3.79413268     0.22666211    -0.92761528    -0.11049834
O       2.11937622     1.50566078     5.21868781     1.64550226    -0.16598868     0.44659410
O       4.57677874     2.77036334     5.00817115    -1.64550226     0.16598868    -0.44659410
O       1.22874553     1.50567805     0.10529125    -1.64571155    -0.16611055     0.44650308
O       5.46740949     2.77034613    10.12156738     1.64571155     0.16611055    -0.44650308
O       4.57676632     0.63235117     0.10525806    -1.64550226     0.16598868     0.44659410
O       2.11938864     3.64367295    10.12160057     1.64550226    -0.16598868    -0.44659410
O       5.46739702     0.63233396     5.21872095     1.64571155     0.16611055     0.44650308
O       1.22875783     3.64369022     5.00813796    -1.64571155    -0.16611055    -0.44650308
O       0.24330117     2.60092034     2.76252971    -0.68952899     0.38401934     1.27406848
O       6.45285379     1.67510378     7.46432919     0.68952899    -0.38401934    -1.27406848
O       3.59137392     1.67506403     2.35093224    -0.68773590    -0.38367070    -1.27424743
O       3.10478099     2.60096014     7.87592649     0.68773590     0.38367070     1.27424743
O       0.24328870     0.46290817     2.35089960    -0.68952899     0.38401934    -1.27406848
O       6.45286620     3.81311595     7.87595914     0.68952899    -0.38401934     1.27406848
O       3.10476857     0.46294797     7.46436178     0.68773590     0.38367070    -1.27424743
O       3.59138633     3.81307615     2.76249707    -0.68773590    -0.38367070     1.27424743
