# total energy = -19516.79889960 eV

CRYSTAL
PRIMVEC
        5.17600016     0.00000000     0.00000000
        0.00000000     5.50899976     0.00000000
        0.00000000     0.00000000     9.26300011
PRIMCOORD
23 1
Ti      1.78789800     3.14616301     3.41791897     0.23531490     0.56526984     2.45927394
Ti      3.33838400     2.23195402     5.78628102    -0.07966438     0.85413724    -1.11784202
Ti      4.49169799     2.01838199     1.53349101    -1.11499607     0.19602509    -3.61821892
Ti      0.89376201     3.41757898     7.69781800    -0.39227695    -1.14467149     2.76407191
Ti      1.98556200     0.32824600     1.31014899     2.84931712    -1.80233859    -1.17005138
Ti      3.17172799     5.24570497     7.74569801     0.43650303     0.55673352     3.09728417
Ti      0.73212398     0.46406199     5.99673698    -0.17173896     0.84730942    -3.06650651
Ti      4.46909201     4.95204700     3.37391900    -0.48134360    -1.21399129     3.22100056
O       1.52394899     1.86992200     4.83351199     1.27425745     0.42094142    -1.42217205
O       3.49414600     3.62152998     4.59753201    -0.15754800    -0.64567932    -1.03561605
O       0.17062098     2.88244002     0.09283298    -0.40146891    -1.37698746    -0.06259816
O       3.55386498     0.82534500     0.14970498    -0.62646032     0.00232119     0.09028663
O       2.03155099     4.46685999     9.07402498    -0.30263978     1.56959761     0.17748409
O       4.26296001     0.73298600     5.04985700    -0.94490879    -0.83534813    -1.74689607
O       0.95019199     4.60916697     4.47136398    -0.38442994     0.79971108     0.65919998
O       0.07322300     3.31533998     2.55678402     0.70093749     0.52443042     0.99690551
O       5.03252899     2.23593200     6.71970302    -0.51611830    -0.53114486     0.38746950
O       2.67274898     1.94695799     2.21574198    -0.12047037    -0.39524067    -0.11210065
O       2.59671002     3.66904200     6.92610903     0.18017989    -0.39394380    -0.64161749
O       0.23975799     0.51584399     2.15282900     1.02097953     0.47674878    -0.64676047
O       5.02491201     4.84798800     7.26435500    -0.83630535     0.78628452     0.38682364
O       2.19446101     1.15000599     7.04434601     0.42942787    -0.63268085     0.68285466
O       2.85831398     4.49904699     2.36480502    -0.59654732     1.37251580    -0.28227432
