# total energy = -39035.97763892 eV

CRYSTAL
PRIMVEC
        7.60600008     0.00000000     0.00000000
        0.00000000     7.60600008     0.00000000
       -3.79573973    -3.79573973     9.71340985
PRIMCOORD
46 1
Ti      1.93517644     4.74887146     6.23183165    -0.51821452     1.36263736     0.09835527
Ti      3.79384702     6.83101497     1.24331401    -0.64541732     0.38444511     1.68458356
Ti      1.81224946     0.97399047     6.05471761     0.29587803    -1.61502671    -0.12653792
Ti      3.82421000     3.01869803     1.10237601    -2.14879204    -1.24390326     0.75238862
Ti     -1.91570557     4.67911944     6.06070964     0.69822137    -0.82300708    -0.38251113
Ti      0.00287401     6.64968101     1.27865300     1.10692408     0.94518287    -0.52788110
Ti     -1.98296257     0.81443845     6.02650161    -0.16712408     0.70767661    -1.75007138
Ti     -0.26897799     2.93161498     1.07550699     1.81254638    -0.73148812     1.47063402
Ti      3.86888044     1.03338644     8.44868861    -1.15754167     0.23390800    -0.39536614
Ti      5.70024500     2.72244899     3.60822598    -0.36045697    -0.46081256     1.17972361
Ti      3.95802844    -2.78643853     8.50659462    -1.58661241    -0.07712310     1.00117354
Ti      5.79409199    -1.11141801     3.65362500    -0.91697580     0.95880586    -1.01303430
Ti     -0.12488456     1.02126246     8.27570861     2.03082695     0.25678697     1.69212589
Ti      1.92409398     2.80224400     3.45224702     0.33902527    -1.40066167    -0.36128255
Ti     -0.00059956    -2.82961654     8.58448660     1.68605449     0.76393160     0.43736795
Ti      1.92189202    -1.04954301     3.82515399     1.05664871     0.54447578     0.26206133
O       1.89128547    -0.98587653     5.81122961     0.34090964    -0.06619950    -0.79629177
O       3.83803502     1.05222599     0.82830601     0.56356340    -0.19591839    -0.44162056
O      -1.72129553     2.79230346     5.59495561    -0.63360053     0.32396735     0.28268338
O       0.18167602     4.79852601     0.76796600    -0.34847048     0.55222431    -0.03702236
O      -1.91063553    -1.03039055     5.51816061    -0.57907101    -1.49768512     2.24153845
O       0.05592001     1.00374801     0.75577799    -0.47708585    -0.09059080     0.36643633
O       3.85287944     2.95999242     8.87187462     0.26354100    -1.72106058     0.54747651
O       5.60202399     4.64855999     4.01316400     0.17075499    -0.29092866     0.65683508
O       3.70657447    -0.83511854     8.94994461     0.10480155    -0.05681883    -1.10283860
O       5.88393999     0.74290702     4.08215099    -1.08940664     1.98542408    -0.36084238
O      -0.14327654     2.89321047     9.06350462    -0.13163462    -1.34370298    -1.56183056
O       2.03011200     4.51510000     4.26169199    -0.29829333     0.02409716    -0.55408682
O      -0.04667253    -0.78285853     8.98102965     0.54346276     0.13577384    -0.82204781
O       1.88988299     0.94477999     4.11382003    -0.14165190     1.15801244     0.07268280
O       1.79150048     0.98902445     7.98779660     0.92210849     0.69453467     0.53040541
O       3.84920902     2.57425100     3.09582497    -0.43490380     0.47708251     1.14295040
O       2.00779046    -2.58192454     8.16054260    -0.95615300    -1.06774586     0.21795430
O       3.73517698    -0.87804899     3.26588101     1.76523807    -0.69191009     0.13469809
O      -1.86701454     0.54999043     7.96914564    -3.11504125     1.11725812     0.03984800
O      -0.14073199     2.59713500     3.13052800     1.39438381     0.88421248    -0.84932182
O      -1.79937056    -2.69291757     8.21319261    -1.16537737     0.03260237    -1.25673975
O       0.08342299    -0.97757702     3.47843097    -1.28398034    -0.92064219    -1.63816947
O       3.79567543     4.50423245     6.55982661     1.90586769     0.09766005    -0.43471894
O       5.72841099     6.63383797     1.55996998     0.28450784    -0.36946689     0.74454959
O       3.68210146     1.12309547     6.33776261     1.54484816     0.05974346     1.11269750
O       5.57210801     3.19482599     1.60003801     1.97729425     0.42841639    -0.47205754
O       0.07637943     4.81352443     6.59435161    -1.27573455    -0.94021447    -0.39580759
O       1.91493001     6.70661900     1.83908002    -0.83094383    -0.40355407    -1.54309981
O      -0.10616455     0.86421344     6.35726364     0.74832577     0.54601073    -0.03218020
O       1.98159200     2.75638597     1.56679202    -1.29324917     1.33359082     0.18619036
