# total energy = -19960.53038932 eV

CRYSTAL
PRIMVEC
        5.93400000     0.00000000     0.00000000
        0.00000000     9.29699974     0.00000000
        0.00000000     0.00000000     4.64899994
PRIMCOORD
24 1
Ti      4.43065400     6.81956601     2.36453001     1.61635803     2.23563185     0.40051194
Ti      4.48084303     2.39786400     2.36041402    -0.56006155    -1.56530181     0.48382240
Ti      1.48093899     6.84295702     2.18060800    -1.60295152     2.62132626     0.69394871
Ti      1.52876402     2.44596102     2.31912099     0.63955881    -1.31078590     0.51414472
Ti      2.97069398     4.71231198     4.55327998    -0.55903774    -0.91601292     0.70604036
Ti      2.98674202     9.21985999     0.08768398    -1.37740681    -0.75845823    -1.15337288
Ti      5.89663601     4.62942002     0.04167398     0.45788690     0.14048924    -0.65120771
Ti      5.88679099     0.06334903     0.05752400     1.49297151    -1.36047532    -0.90731127
O       4.44690498     5.63640400     0.86942700    -0.05701886    -0.85506258    -0.74618532
O       4.48769100     0.92434698     0.95391899    -0.84352964     0.13726354    -0.26545056
O       1.45828402     5.62636799     0.67558202     0.24195555     0.38077435     1.29470699
O       1.47305499     0.86398002     0.91194899     0.53686685     0.59389394     0.24216201
O       4.46333700     8.27459501     3.77167402    -0.60169184     0.73038743     0.53143848
O       4.41742198     3.76278601     3.72587500     0.55730250     0.41455197     0.56396783
O       1.44478598     8.30702997     3.70994602     1.12061573     0.83855275     0.84827770
O       1.46821001     3.74528702     3.77728499    -0.13236250    -0.40140257    -0.11688419
O       2.93754002     5.90332698     3.12195300     0.14513189     0.43366839    -0.22880950
O       3.00872700     1.52347500     3.22489501    -0.30492035    -0.31246860    -0.05340852
O       0.08733600     6.04574499     3.21544099    -0.82403218    -0.65785401    -0.51629210
O       5.92542998     1.45666500     3.27164697    -0.26335305     0.64848851    -0.54539520
O       3.01411397     7.86275599     1.49194599    -0.06796919     0.04515553    -0.42819734
O       2.92116701     3.42580499     1.53689002     0.23013362    -0.42091288    -0.88814755
O       0.00059400     7.87725602     1.44407000     0.00635243    -0.65559144     0.12347933
O       5.92805999     3.31196398     1.40969602     0.14920117    -0.00585775     0.09816167
