# total energy = -4988.03371554 eV

CRYSTAL
PRIMVEC
        3.48897191     0.00000000     0.00000000
        0.00000000     3.64446394     0.00000000
        0.00000000    -0.00006370     4.74539533
PRIMCOORD
6 1
Ti      1.74448580     1.82220007     2.37269761     0.00000000     0.00000000     0.00000000
Ti      0.00000000     0.00000000     0.00000000     0.00000000     0.00000000     0.00000000
O       1.74448580     0.71023992     0.92480763     0.00000000    -0.58676941    -0.40506717
O       1.74448580     2.93416022     3.82058754     0.00000000     0.58676941     0.40506717
O       0.00000000     1.11193466     3.29750629    -0.00000000     0.58632178    -0.40551891
O       0.00000000     2.53246547     1.44788894    -0.00000000    -0.58632178     0.40551891
