# total energy = -4990.52719985 eV

CRYSTAL
PRIMVEC
        3.86140145     0.00000000     0.00000000
        0.19294122     3.85657813     0.00000000
       -2.02720562    -1.92832167     4.92954879
PRIMCOORD
6 1
Ti      0.14454992     2.89258004     1.23238706     0.00000309    -0.00000309     0.00000000
Ti      1.88258664    -0.96432405     3.69716145    -0.00000309     0.00000309     0.00000000
O       0.04827593     0.96413822     0.80298319    -0.00027717    -0.00041189    -0.24489947
O       1.97886047     0.96411766     4.12656538     0.00027717     0.00041189     0.24489947
O      -0.04825688    -0.96412011     3.26775758    -0.00041189    -0.00027717    -0.24489947
O       2.07539328     2.89237594     1.66179104     0.00041189     0.00027717     0.24489947
