# total energy = -4989.25022169 eV

CRYSTAL
PRIMVEC
        2.81847204     0.00000000     0.00000000
        0.00000000     4.41612314     0.00000000
        0.00000000    -0.00005731     4.41612314
PRIMCOORD
6 1
Ti      1.40923597     2.20803286     2.20806152     0.00000000     0.00000000     0.00000000
Ti      0.00000000     0.00000000     0.00000000     0.00000000     0.00000000     0.00000000
O       1.40923597     0.86062618     0.86063734     0.00000000     0.68313542     0.68313542
O       1.40923597     3.55543955     3.55548569     0.00000000    -0.68313542    -0.68313542
O       0.00000000     1.34738346     3.06869976     0.00000000    -0.68288268     0.68288268
O       0.00000000     3.06868227     1.34742328     0.00000000     0.68288268    -0.68288268
