# total energy = -4986.66906131 eV

CRYSTAL
PRIMVEC
        3.68478108     0.00000000     0.00000000
        0.00000000     4.26736955     0.00000000
        0.00000000    -0.00006733     5.13599434
PRIMCOORD
6 1
Ti      1.84239060     2.13365094     2.56799717     0.00000000     0.00000000     0.00000000
Ti      0.00000000     0.00000000     0.00000000     0.00000000     0.00000000     0.00000000
O       1.84239060     0.83163428     1.00092963     0.00000000     0.38618858     0.51373977
O       1.84239060     3.43566754     4.13506465     0.00000000    -0.38618858    -0.51373977
O       0.00000000     1.30198945     3.56892794    -0.00000000    -0.38602686     0.51357368
O       0.00000000     2.96531243     1.56706640    -0.00000000     0.38602686    -0.51357368
