# total energy = -19515.14974627 eV

CRYSTAL
PRIMVEC
        5.17600016     0.00000000     0.00000000
        0.00000000     5.50899976     0.00000000
        0.00000000     0.00000000     9.26300011
PRIMCOORD
23 1
Ti      1.83637100     3.22146499     3.35882199    -0.46137049    -1.48577962     3.38670385
Ti      3.46350902     2.32693699     5.89318498    -0.42673823    -0.79862813    -3.51607847
Ti      4.26401498     2.11584898     1.46346900     1.39395623    -0.40877213    -0.96424143
Ti      0.81494598     3.48416599     7.79776900     0.43814982     0.29238596     1.59034617
Ti      2.05961702     0.08467402     1.56911601    -1.45598875    -0.90181168    -2.63620164
Ti      3.23271302     5.19418999     7.97111000    -0.55079838     1.45679453     0.64406569
Ti      0.76130302     0.62063099     6.02901002     0.63310019     1.60935948    -3.70502479
Ti      4.38143502     4.95472998     3.21075502     1.72253151    -1.05998884     2.73036422
O       1.80246000     1.82534099     4.75311800     0.24305110     0.73431505    -0.08906639
O       3.59662901     3.64384602     4.39976000    -0.42874987    -0.75116221     1.43009362
O       5.00765300     2.85381999     9.20135000    -0.32588899     0.57630193     0.34000075
O       3.52569402     0.54177098     0.28849098     1.29539759     0.12611806    -0.12333484
O       1.62763502     4.84228702     9.01672699    -0.32653074    -1.24246678    -0.17735733
O       4.36236802     0.84911501     5.03361899    -0.47858583    -0.21871560    -2.00521284
O       0.96770501     4.66247999     4.20573700     0.93100554     0.73595490     0.78190130
O       0.21706798     3.36284099     2.46668498    -0.67334851    -0.88767575    -1.13733279
O       5.04180398     2.02477101     6.96415602     0.69939457     0.77247075    -0.48816140
O       2.49464797     1.78180399     1.90773701    -0.87648039     2.05567693     1.79679786
O       2.80000500     3.58100701     7.04650600    -2.11519131     0.73344627     1.38401917
O       0.16524401     0.55194198     2.00135497     0.55783883     0.80436787    -0.00273360
O       5.02817502     4.94374199     7.00355502    -0.66723751    -2.67378270     1.87036280
O       2.39254000     1.07229599     7.05907899     0.27342612    -0.88706743     0.15746676
O       2.99487298     4.05744101     2.13845199     0.59905723     1.41865863    -1.26737744
