# total energy = -19913.30501152 eV

CRYSTAL
PRIMVEC
        4.85489531     0.00000000     0.00000000
        2.43158622     4.55917479     0.00000000
        0.00000000     0.00000000     8.99173097
PRIMCOORD
24 1
Ti      3.20062181     2.70176276     3.33586807     6.43531548    -5.65100608     1.26919675
Ti      4.08585985     1.85741214     5.65586299    -6.43531548     5.65100608    -1.26919675
Ti      5.17766509     1.85741377     1.15996154   -13.49056889     4.25274170     2.84331488
Ti      2.10881671     2.70176135     7.83176958    13.49056889    -4.25274170    -2.84331488
Ti      1.98482889     0.42217552     1.15999760     6.43507045    -5.65102202    -1.26897229
Ti      5.30165286     4.13699956     7.83173356    -6.43507045     5.65102202     1.26897229
Ti      0.89302356     0.42217377     5.65582692    13.49096330    -4.25273450     2.84225301
Ti      6.39345818     4.13700127     3.33590409   -13.49096330     4.25273450    -2.84225301
O       2.39280791     1.60536298     4.58841151    -2.22895546    -0.31476511    -1.57380291
O       4.89367380     2.95381196     4.40331956     2.22895546     0.31476511     1.57380291
O       1.74708371     1.60538133     0.09257491     2.84946265     0.83839103    -3.65691481
O       5.53939806     2.95379364     8.89915586    -2.84946265    -0.83839103     3.65691481
O       3.67788079     0.67422454     0.09254573     2.22892847     0.31449000    -1.57415155
O       3.60860091     3.88495035     8.89918504    -2.22892847    -0.31449000     1.57415155
O       4.32360504     0.67420622     4.58844064    -2.84986837    -0.83729934    -3.65603806
O       2.96287662     3.88496873     4.40329038     2.84986837     0.83729934     3.65603806
O       1.65541813     2.77314852     2.42889086     0.19262249    -5.94710291    -4.99720027
O       5.63106358     1.78602642     6.56284016    -0.19262249     5.94710291     4.99720027
O       3.55638197     1.78598384     2.06700323     2.99291354    -4.07106106    -5.94246439
O       3.73009975     2.77319110     6.92472764    -2.99291354     4.07106106     5.94246439
O       0.43962512     0.49356110     2.06697453     0.19242246    -5.94779043     4.99732754
O       6.84685658     4.06561379     6.92475634    -0.19242246     5.94779043    -4.99732754
O       2.51430673     0.49360368     6.56286881    -2.99304133     4.07108677    -5.94284748
O       4.77217497     4.06557121     2.42886216     2.99304133    -4.07108677     5.94284748
