# total energy = -19960.87815586 eV

CRYSTAL
PRIMVEC
        5.93400000     0.00000000     0.00000000
        0.00000000     9.29699974     0.00000000
        0.00000000     0.00000000     4.64899994
PRIMCOORD
24 1
Ti      4.47627400     7.03586298     2.46214300    -1.05563467    -1.12004803    -0.89885131
Ti      4.44630199     2.35026000     2.39328799     0.41168571    -0.81255683    -0.61795099
Ti      1.46524402     6.96605799     2.24517397     0.98087211    -0.07542591     0.42868636
Ti      1.50085400     2.36006100     2.27876001    -0.38047584    -0.79553998    -0.29278782
Ti      2.94369001     4.60213199     0.02424097     0.80877859     0.65618254    -0.61508369
Ti      2.96084498     9.20989997     4.61569199     0.40952264     1.73043792     1.42197047
Ti      5.91917198     4.70164297     0.03519600    -0.80280438    -0.33850797     0.19492980
Ti      0.02494700     9.26022499     4.57466700    -0.26778332     1.82729784     1.33348001
O       4.35416000     5.62365802     0.90847600     1.14333555    -0.50058060    -0.23407100
O       4.38066300     0.93128502     0.76773999     0.40640466    -0.21882101     0.59011082
O       1.52986302     5.50150698     0.94191301    -0.89422770     0.53024292     0.19047382
O       1.51638599     0.93252700     0.88876901    -0.17361072     0.01232510    -0.37744837
O       4.46955700     8.44323999     3.71914000    -0.17435171    -1.05382667    -0.14958427
O       4.47797102     3.76034899     3.71866199     0.11043561     0.05538364     0.07090180
O       1.45058200     8.32941200     3.85371200     0.10801697    -0.59881812    -1.00660783
O       1.46210399     3.69790401     3.75679699    -0.09379953     0.11617174    -0.31711664
O       2.91612998     6.13624901     3.31496997     0.27084654    -0.02786203    -0.59962287
O       3.03938399     1.36570298     3.12929702    -0.93694299     0.37064163     0.07558403
O       5.92615701     6.04185098     3.22117701    -0.00760455     0.12562312     0.25193658
O       0.00836597     1.28397599     3.15102599     0.42086917     1.16852620    -0.44867489
O       2.93981098     7.91201101     1.50220901     0.05602564     0.03180070    -0.45902385
O       3.07586102     3.24948302     1.31242398    -0.87775592    -0.78317014     1.35051357
O       5.91886701     7.93103700     1.47680898    -0.02762908    -0.40028672     0.00868982
O       5.92307598     3.23451101     1.40321699     0.56582725     0.10081068     0.09954647
