# total energy = -39040.58158523 eV

CRYSTAL
PRIMVEC
        7.60629642    -0.00000847    -0.00005503
       -0.00000847     7.60629642    -0.00005503
       -3.80314186    -3.80314186     9.70738094
PRIMCOORD
46 1
Ti      1.90145524     4.75414352     6.14235704    -0.00000874    -0.00067312     0.03119983
Ti      3.77384215     6.65561825     1.22847973    -0.00120122     0.00013910     0.00220035
Ti      1.90145110     0.95099531     6.14236832     0.00003548    -0.00067337     0.03127902
Ti      3.77384633     2.85246662     1.22850728    -0.00120096     0.00020697     0.00220009
Ti     -1.90166435     4.75379807     5.89906942    -0.00027331    -0.00003985    -0.05768838
Ti      0.02910719     6.65568198     1.22841340     0.00135831     0.00029979     0.00234613
Ti     -1.90166118     0.95064982     5.89910427    -0.00033116    -0.00003960    -0.05763207
Ti      0.02911134     2.85253195     1.22844100     0.00135857     0.00029465     0.00234562
Ti      3.75089635     0.95078686     8.52711394     0.00787349    -0.00004422     0.02550201
Ti      5.70488486     2.85238182     3.56180003    -0.00028848    -0.00004577    -0.00175941
Ti      3.75091749    -2.85236133     8.52714097     0.00776833    -0.00004448     0.02540174
Ti      5.70488920    -0.95076410     3.56182746    -0.00028873    -0.00006248    -0.00175915
Ti      0.05228341     0.95079147     8.52718305    -0.00681805     0.00000489     0.02540199
Ti      1.90170289     2.85223013     3.68207488    -0.00044274     0.00012701     0.05538570
Ti      0.05228421    -2.85235677     8.52720196    -0.00678874     0.00000514     0.02532846
Ti      1.90170719    -0.95092282     3.68210240    -0.00044300     0.00008125     0.05538544
O       1.90157983     2.85230684     5.73817519    -0.00002905    -0.00005194     0.03533417
O       3.77745922     4.75393766     0.79521522     0.00858749     0.00009205    -0.05234125
O       1.90158409    -0.95084127     5.73820272    -0.00002905    -0.00006891     0.03533391
O       3.77747319     0.95078946     0.79523371     0.00851087     0.00009205    -0.05257085
O      -1.90149610     2.85229594     5.55355184    -0.00024040     0.00001414     0.06363560
O       0.02562447     4.75395250     0.79515674    -0.00834529     0.00012264    -0.05190236
O      -1.90149189    -0.95085407     5.55357930    -0.00024014    -0.00007765     0.06363586
O       0.02563494     0.95080430     0.79517622    -0.00832832     0.00012316    -0.05196201
O       4.05347542     2.85236983     8.87420790    -0.01634939     0.00008793    -0.05514093
O       5.70468357     4.75391531     3.95616832    -0.00001003    -0.00003471     0.00813317
O       4.05347958    -0.95078624     8.87423537    -0.01634939     0.00004551    -0.05514067
O       5.70467566     0.95076709     3.95621702     0.00003677    -0.00003445     0.00793520
O      -0.25033659     2.85235975     8.87427266     0.01624475     0.00034427    -0.05520983
O       1.90158420     4.75389362     4.13123066    -0.00006068    -0.00003394     0.03153871
O      -0.25033234    -0.95077740     8.87430018     0.01624501    -0.00025557    -0.05520958
O       1.90159193     0.95074541     4.13126770    -0.00009127    -0.00003394     0.03156107
O       1.90156650     0.95082272     8.14741488     0.00062401     0.00011159    -0.02027007
O       3.79694764     2.85237788     3.20889020    -0.00614314    -0.00003625     0.00250374
O       1.90158123    -2.85232567     8.14744458     0.00043400     0.00011184    -0.02012326
O       3.79695193    -0.95075745     3.20891763    -0.00614340    -0.00004525     0.00250400
O       0.00623806     2.85239190     3.20889413     0.00602255    -0.00003137     0.00253562
O       0.00624233    -0.95073993     3.20892163     0.00602281    -0.00000874     0.00253562
O       3.90875304     4.75381898     6.54754908     0.03286102    -0.00006196     0.00020440
O       5.70474467     6.65550222     1.55668001    -0.00005271     0.00008613     0.03465411
O       3.90875596     0.95067070     6.54758079     0.03265534    -0.00006196     0.00000694
O       5.70474885     2.85234499     1.55670758    -0.00005271     0.00004011     0.03465437
O      -0.10560647     4.75383520     6.54750212    -0.03313330    -0.00010002     0.00071734
O       1.90154251     6.65547722     1.68438207    -0.00000617     0.00015349    -0.02649600
O      -0.10560912     0.95068687     6.54754911    -0.03294279    -0.00009976     0.00030185
O       1.90154670     2.85232194     1.68440963    -0.00000591     0.00007559    -0.02649626
