# total energy = -19959.60310943 eV

CRYSTAL
PRIMVEC
        5.62474920     0.00000000     0.00000000
        0.00002799     5.41629736     0.00000000
        0.00000000     0.00000000     9.61170914
PRIMCOORD
24 1
Ti      2.03871767     3.20969275     3.56587562    -0.01328901    -0.03870900    -0.14877411
Ti      3.58605952     2.20660450     6.04583385     0.01328901     0.03870900     0.14877411
Ti      4.85099424     2.20660636     1.23994072    -0.01313320     0.03843492     0.14577672
Ti      0.77378301     3.20969116     8.37176891     0.01313320    -0.03843492    -0.14577672
Ti      2.03870373     0.50154418     1.23997928    -0.01489184    -0.03864704     0.14560780
Ti      3.58607352     4.91475323     8.37173036     0.01489184     0.03864704    -0.14560780
Ti      0.77376901     0.50154221     6.04579534     0.01185433    -0.03881570     0.14935698
Ti      4.85100818     4.91475526     3.56591418    -0.01185433     0.03881570    -0.14935698
O       1.78027851     1.90717031     4.90478173     0.61874212     0.34320846     0.08426742
O       3.84449874     3.50912694     4.70692774    -0.61874212    -0.34320846    -0.08426742
O       1.03214877     1.90719221     0.09895794    -0.61887993     0.34381241     0.08357245
O       4.59262854     3.50910509     9.51275131     0.61887993    -0.34381241    -0.08357245
O       3.84448474     0.80097821     0.09892677    -0.61863825    -0.34303620     0.08444226
O       1.78029251     4.61531904     9.51278247     0.61863825     0.34303620    -0.08444226
O       4.59261454     0.80095636     4.90481295     0.61897969    -0.34337018     0.08406071
O       1.03216260     4.61534095     4.70689658    -0.61897969     0.34337018    -0.08406071
O       0.20437727     3.29449910     2.59636249     0.11905446    -0.13677451     0.19424820
O       5.42039998     2.12179820     7.01534697    -0.11905446     0.13677451    -0.19424820
O       3.01675685     2.12174779     2.20952280     0.11967590     0.13674931    -0.19472951
O       2.60802034     3.29454952     7.40218656    -0.11967590    -0.13674931     0.19472951
O       0.20436327     0.58635037     2.20949208     0.11890585    -0.13615410    -0.19463335
O       5.42041392     4.82994693     7.40221723    -0.11890585     0.13615410     0.19463335
O       2.60800640     0.58640078     7.01537765    -0.11933188    -0.13661099    -0.19496425
O       3.01677085     4.82989647     2.59633182     0.11933188     0.13661099     0.19496425
