# total energy = -19518.11124033 eV

CRYSTAL
PRIMVEC
        5.93400000     0.00000000     0.00000000
        0.00000000     9.29699974     0.00000000
        0.00000000     0.00000000     4.64899994
PRIMCOORD
23 1
Ti      4.54291398     7.04130599     2.33378899    -0.38595101    -0.44325912    -0.66284067
Ti      4.45587200     2.30855602     2.35251499    -0.23923301    -0.45501035     0.18297828
Ti      1.46826800     7.01755800     2.31262698     0.41140957     0.33872883    -0.44224456
Ti      1.41733702     2.33766199     2.24514101     0.28441014    -0.67012435     0.52657883
Ti      2.95010501     4.43304599     0.01852501     0.52123480     0.59414951     0.91920263
Ti      2.95303898     0.06250599     0.01781899    -0.49363528    -0.20459638    -0.08759752
Ti      0.00396899     4.67840199     0.04266402    -0.27949419     0.64893794     0.18354470
Ti      5.87807697     0.01028900     4.63244601     0.74932953     0.17594374    -0.45707161
O       4.37142102     5.61771902     0.90923701     0.24401141    -0.48332361    -0.15747164
O       4.50814598     0.96288299     0.89625698    -0.17807647    -0.48575202    -0.38954824
O       1.51286500     5.51242401     1.00706802     0.29237310     0.28531208    -0.31017312
O       1.42090098     0.94698999     0.83080098     0.43127778     0.20656122     0.57075812
O       4.43219603     8.38591601     3.65584400    -0.01985638     0.13360177     0.99731226
O       4.47006300     3.70202101     3.72075097    -0.10104748     0.81567584     0.08235786
O       1.59329301     8.45939201     3.73320701    -0.67567228    -1.11156673    -0.43189484
O       1.51773999     3.61280802     3.84563400    -0.73835528     0.67897383    -1.16085505
O       2.99473201     1.51369200     3.25084697    -0.13791582    -0.66986030    -0.12159060
O       0.06523999     6.03330599     3.31479598    -0.09123974     0.53789684    -0.57930601
O       0.00629599     1.30428402     3.14036699    -0.10769430     0.71918050     0.03539742
O       2.97967702     7.92818002     1.39911602    -0.08133302    -0.70021707     0.76013999
O       2.92743501     3.20441903     1.35438499     0.50703176    -0.29548028     0.73754487
O       0.02331100     7.86996603     1.50188801     0.16229683     0.75084879    -1.16869023
O       5.93349803     3.26229599     1.35012199    -0.07387091    -0.36662016     0.97346913
