# total energy = -19904.55146010 eV

CRYSTAL
PRIMVEC
        7.99265564     0.00000000     0.00000000
        0.00002516     3.22664244     0.00000000
        0.00000000     0.00000000    12.37063815
PRIMCOORD
24 1
Ti      2.89696827     1.91210528     4.58941854    -0.19544659     0.16638926     1.79891336
Ti      5.09571276     1.31453705     7.78121972     0.19544659    -0.16638926    -1.79891336
Ti      6.89315967     1.31453815     1.59585116    -0.19498277    -0.16682301    -1.79784635
Ti      1.09952135     1.91210435    10.77478721     0.19498277     0.16682301     1.79784635
Ti      2.89695580     0.29878412     1.59590076    -0.19568185     0.16619746    -1.79749128
Ti      5.09572523     2.92785832    10.77473761     0.19568185    -0.16619746     1.79749128
Ti      1.09950888     0.29878296     7.78117013     0.19552475     0.16644171    -1.79921958
Ti      6.89317214     2.92785948     4.58946813    -0.19552475    -0.16644171     1.79921958
O       2.52973494     1.13615563     6.31264194     3.66901828     0.12164331    -0.58867254
O       5.46294614     2.09048669     6.05799632    -3.66901828    -0.12164331     0.58867254
O       1.46665751     1.13616863     0.12736266    -3.66802583     0.12203977    -0.58857535
O       6.52602363     2.09047370    12.24327527     3.66802583    -0.12203977     0.58857535
O       5.46293367     0.47716547     0.12732253    -3.66651351    -0.12110415    -0.58780454
O       2.52974735     2.74947685    12.24331539     3.66651351     0.12110415     0.58780454
O       6.52601116     0.47715248     6.31268213     3.66691409    -0.12141088    -0.58555045
O       1.46666981     2.74948990     6.05795614    -3.66691409     0.12141088     0.58555045
O       0.29040699     1.96262683     3.34161797    -0.72556712     0.17087738     0.90025154
O       7.70227403     1.26401550     9.02902029     0.72556712    -0.17087738    -0.90025154
O       4.28674534     1.26398550     2.84374044    -0.72737024    -0.17081542    -0.90215004
O       3.70593575     1.96265688     9.52689759     0.72737024     0.17081542     0.90215004
O       0.29039452     0.34930561     2.84370094    -0.72612351     0.17133709    -0.90333275
O       7.70228650     2.87733671     9.52693710     0.72612351    -0.17133709     0.90333275
O       3.70592328     0.34933560     9.02905969     0.72768520     0.17109412    -0.90218912
O       4.28675781     2.87730672     3.34157852    -0.72768520    -0.17109412     0.90218912
