# total energy = -19886.54490119 eV

CRYSTAL
PRIMVEC
        6.59390888     0.00000000     0.00000000
        0.00002159     3.00767695     0.00000000
        0.00000000     0.00000000    10.03541395
PRIMCOORD
24 1
Ti      2.38998751     1.78234659     3.72306700    -1.57205353     1.16725787    -2.84488531
Ti      4.20394268     1.22533041     6.31234709     1.57205353    -1.16725787     2.84488531
Ti      5.68682909     1.22533143     1.29459991    -1.56915975    -1.16803872     2.84764230
Ti      0.90710109     1.78234566     8.74081428     1.56915975     1.16803872    -2.84764230
Ti      2.38997686     0.27850816     1.29464017    -1.57115107     1.16055577     2.84382396
Ti      4.20395333     2.72916888     8.74077402     1.57115107    -1.16055577    -2.84382396
Ti      0.90709044     0.27850704     6.31230683     1.56891910     1.16030509     2.84809636
Ti      5.68683975     2.72917000     3.72310726    -1.56891910    -1.16030509    -2.84809636
O       2.08702132     1.05905417     5.12099496     8.68896768    -2.63899875     6.22953330
O       4.50690887     1.94862277     4.91441913    -8.68896768     2.63899875    -6.22953330
O       1.20998673     1.05906630     0.10332020    -8.68808116    -2.64025679     6.23160895
O       5.38394351     1.94861069     9.93209360     8.68808116     2.64025679    -6.23160895
O       4.50689826     0.44478430     0.10328765    -8.68727769     2.64001768     6.23052703
O       2.08703193     2.56289269     9.93212616     8.68727769    -2.64001768    -6.23052703
O       5.38393291     0.44477217     5.12102751     8.68727847     2.64072370     6.23088313
O       1.20999723     2.56290483     4.91438658    -8.68727847    -2.64072370    -6.23088313
O       0.23958499     1.82943960     2.71081569     4.61765311    -1.79984590     1.21040383
O       6.35434519     1.17823734     7.32459840    -4.61765311     1.79984590    -1.21040383
O       3.53654782     1.17820932     2.30692326     4.61888261     1.80029044    -1.20657777
O       3.05738236     1.82946767     7.72849069    -4.61888261    -1.80029044     1.20657777
O       0.23957439     0.32560113     2.30689123     4.61802464    -1.79968546    -1.20729639
O       6.35435580     2.68207587     7.72852271    -4.61802464     1.79968546     1.20729639
O       3.05737176     0.32562915     7.32463038    -4.61810331    -1.80012409    -1.21140219
O       3.53655843     2.68204784     2.71078367     4.61810331     1.80012409     1.21140219
