# total energy = -4988.93113664 eV

CRYSTAL
PRIMVEC
        3.36065682     0.00000000     0.00000000
        0.00000000     3.89199908     0.00000000
        0.00000000    -0.00006141     4.68421706
PRIMCOORD
6 1
Ti      1.68032846     1.94596868     2.34210853     0.00000000     0.00000000     0.00000000
Ti      0.00000000     0.00000000     0.00000000     0.00000000     0.00000000     0.00000000
O       1.68032846     0.75848127     0.91288490    -0.00000000    -0.20829646    -0.25013346
O       1.68032846     3.13345604     3.77133211    -0.00000000     0.20829646     0.25013346
O       0.00000000     1.18746260     3.25499446    -0.00000000     0.20793830    -0.24991029
O       0.00000000     2.70447476     1.42922259    -0.00000000    -0.20793830     0.24991029
