# total energy = -4977.11265751 eV

CRYSTAL
PRIMVEC
        4.60597695     0.00000000     0.00000000
        0.00000000     2.40562525     0.00000000
        0.00000000    -0.00012688     6.41499975
PRIMCOORD
6 1
Ti      2.30298825     1.20274913     3.20749987     0.00000000     0.00000000     0.00000000
Ti      0.00000000     0.00000000     0.00000000     0.00000000     0.00000000     0.00000000
O       2.30298825     0.46879619     1.25018898    -0.00000000    -0.15449867     1.92716003
O       2.30298825     1.93670211     5.16481082    -0.00000000     0.15449867    -1.92716003
O       0.00000000     0.73390310     4.45769016    -0.00000000     0.15438272     1.92122515
O       0.00000000     1.67159521     1.95730959    -0.00000000    -0.15438272    -1.92122515
