# total energy = -19908.68173927 eV

CRYSTAL
PRIMVEC
        8.18804070     0.00000000     0.00000000
        0.00002681     3.73480764     0.00000000
        0.00000000     0.00000000    12.46155798
PRIMCOORD
24 1
Ti      2.96778669     2.21324356     4.62314913     0.06552485    -0.14110039     2.60003546
Ti      5.22028047     1.52156413     7.83840903    -0.06552485     0.14110039    -2.60003546
Ti      7.06166690     1.52156541     1.60758011     0.06560404     0.14105540    -2.60018947
Ti      1.12640026     2.21324241    10.85397817    -0.06560404    -0.14105540     2.60018947
Ti      2.96777346     0.34583980     1.60763010     0.06552485    -0.14110039    -2.60003546
Ti      5.22029369     3.38896795    10.85392818    -0.06552485     0.14110039     2.60003546
Ti      1.12638703     0.34583841     7.83835904    -0.06560404    -0.14105540    -2.60018947
Ti      7.06168012     3.38896934     4.62319912     0.06560404     0.14105540     2.60018947
O       2.59157593     1.31508925     6.35903770     2.16441921     0.72590214    -1.75821227
O       5.59649123     2.41971839     6.10252046    -2.16441921    -0.72590214     1.75821227
O       1.50251099     1.31510431     0.12829871    -2.16309097     0.72594019    -1.75871183
O       6.68555623     2.41970338    12.33325909     2.16309097    -0.72594019     1.75871183
O       5.59647806     0.55231457     0.12825829    -2.16441921    -0.72590214    -1.75821227
O       2.59158909     3.18249312    12.33329951     2.16441921     0.72590214     1.75821227
O       6.68554306     0.55229951     6.35907812     2.16309097    -0.72594019    -1.75871183
O       1.50252404     3.18250819     6.10248004    -2.16309097     0.72594019     1.75871183
O       0.29750664     2.27172170     3.36617773    -1.69092107     0.46271389     0.15951978
O       7.89056052     1.46308593     9.09538043     1.69092107    -0.46271389    -0.15951978
O       4.39153741     1.46305114     2.86464097    -1.69251182    -0.46274860    -0.15943674
O       3.79652975     2.27175656     9.59691701     1.69251182     0.46274860     0.15943674
O       0.29749347     0.40431789     2.86460120    -1.69092107     0.46271389    -0.15951978
O       7.89057368     3.33048981     9.59695678     1.69092107    -0.46271389     0.15951978
O       3.79651658     0.40435268     9.09542014     1.69251182     0.46274860    -0.15943674
O       4.39155058     3.33045502     3.36613796    -1.69251182    -0.46274860     0.15943674
