# total energy = -4985.29160289 eV

CRYSTAL
PRIMVEC
        4.03041507     0.00000000     0.00000000
        0.00000000     3.40041487     0.00000000
        0.00000000    -0.00007681     5.33817060
PRIMCOORD
6 1
Ti      2.01520742     1.70016898     2.66908546     0.00000000     0.00000000     0.00000000
Ti      0.00000000     0.00000000     0.00000000     0.00000000     0.00000000     0.00000000
O       2.01520742     0.66267580     1.04033088     0.00000000    -0.13043828     1.26848147
O       2.01520742     2.73766221     4.29783999     0.00000000     0.13043828    -1.26848147
O       0.00000000     1.03746257     3.70941736     0.00000000     0.13045294     1.26906819
O       0.00000000     2.36287538     1.62875357     0.00000000    -0.13045294    -1.26906819
