# total energy = -19959.14393127 eV

CRYSTAL
PRIMVEC
        7.60600008     0.00000000     0.00000000
        0.00000000     7.60600008     0.00000000
       -1.89786986    -1.89786986     4.85670466
PRIMCOORD
24 1
Ti      3.76416902     6.72203399     1.10981000     1.25981556    -1.17293564     0.89511216
Ti      3.94132697     2.69772001     1.24861103    -2.06419705     2.22273493     0.25304138
Ti     -0.02392299     6.78390301     1.19637700    -1.26157728    -0.03723370    -0.39219108
Ti     -0.04687902     2.87434599     1.29014599     1.50175543    -0.45923776    -0.37528967
Ti      5.66148224     2.91203023     3.72414083     0.24980899    -0.19296136     0.19047871
Ti      5.60303122    -0.81042178     3.59668082    -0.20070579    -0.42716427    -0.15054689
Ti      2.00500122     2.68232624     3.65100383    -0.58581553    -0.36986952     0.17264707
Ti      1.88390922    -0.99564980     3.62016480     0.18159503     0.74473908    -1.12479532
O       3.86685200     4.60281399     0.74992201    -0.63806422     0.89700937     0.13714732
O       4.18193900     0.99137198     0.68900100    -1.12809173    -4.19572901     0.82780734
O      -0.12583602     4.70236498     0.77226302     1.40141218     2.29038968     0.99883153
O      -0.04870399     0.99273102     0.67326401     0.10938582     0.16222304     0.76616152
O       5.33048324     4.92736025     4.08421780     1.47388980    -1.81744974    -0.41404084
O       5.40444921     1.10192923     4.22501080     0.85112905    -1.88401408    -2.20515347
O       1.95369822     4.74320424     4.05027282    -0.56364310    -0.03289933    -0.43284615
O       2.21108623     0.76155422     4.18396480    -1.20033615     2.63732033    -1.55614251
O       3.85292220     2.83758521     3.30018979    -0.48373190     0.36401101    -0.88557542
O       3.74789322    -0.77325777     3.06882879     0.60587323    -0.59469201    -0.27200379
O       0.13294721     2.71411625     3.17408579    -2.19226272     0.67289343     1.90171125
O      -0.11369680    -0.69196577     3.17220584     1.10634970    -0.37002225     0.60305144
O       5.73214502     6.43432497     1.54931102    -1.21833671     0.96021611     0.67036732
O       5.71131502     2.63786398     1.63746597     1.04827411     0.80043819     1.69683204
O       1.87079102     6.86490602     1.64385298     0.12814846    -0.83616677    -0.97841464
O       1.87939698     2.50690203     1.66455001     1.61932534     0.63840001    -0.32618878
