# total energy = -18961.69847449 eV

CRYSTAL
PRIMVEC
        7.60600008     0.00000000     0.00000000
        0.00000000     7.60600008     0.00000000
       -1.89786986    -1.89786986     4.85670466
PRIMCOORD
22 1
Ti      6.00311500     5.24844400     0.77361999    -7.99656009     8.65205717    -3.77814237
Ti      5.77185602     2.00418501     2.39581899    -6.06757483    -5.25428420   -12.02029792
Ti     -1.31421980     4.28464024     3.85313080     0.01489955    18.80463332     2.26948172
Ti      0.42760898     3.72362801     1.36785599     6.73308867   -19.05633259    21.37890529
Ti     -1.45084775     2.73924021     4.69928681     1.00285068    81.27090697    29.73608330
Ti      5.24159623     1.86686923     4.28841179   -72.74129375   -61.86225882   -22.62566505
Ti     -0.33243280     2.03826921     4.27366579    68.01021227   -22.16373302   -20.11111725
Ti     -0.94903680     0.11483522     3.62933984     1.60408743   -15.38287067     3.30305041
O       3.70884300     5.85380801     1.01711302     1.55479037    -0.32778749    -0.00192293
O       5.59794102     6.55245999     1.66218300    -3.50444422     1.11724167     2.51267397
O       0.36147098     5.32749800     1.40553198    -5.99500747    12.15093032    10.72873873
O      -0.33336976     5.80131225     3.48650384    -1.38538109    -0.22263062     1.37628606
O       6.01497502     3.69453601     2.34107603   -11.38289010    12.98016539    53.27537220
O       6.62843899     0.56742899     2.00631400     2.29318653    -1.64301215    -1.00273935
O       1.72878498     5.58473497     0.41937302    13.17352862     8.48099673    -0.39555485
O       2.21015900     3.90756901     1.24053599     3.38304517    -1.63557317     1.94912549
O       4.08175220     1.61851524     2.92315883    -1.13911354    -0.32673745    -3.62697301
O       0.98649525     2.56694422     2.64017082    -1.71413840     0.47980788     0.83683654
O       4.11045022     4.27403722     4.02737379     2.67986079    -1.06575454     0.99071275
O       6.19694701     3.57017200     1.39091801     5.06010979   -10.54274789   -60.21647605
O       0.66828821     0.74523820     4.23441783     3.95216189    -7.89306466    -0.65545671
O       7.09722098     1.65732002     0.46058699     2.46458199     3.44004860    -3.92292047
