# total energy = -19923.43298607 eV

CRYSTAL
PRIMVEC
        5.98446408     0.00000000     0.00000000
        0.00002258     3.82156755     0.00000000
        0.00000000     0.00000000     9.13994631
PRIMCOORD
24 1
Ti      2.16909360     2.26465737     3.39085491    -0.76192691     3.06284629    -4.32432021
Ti      3.81539267     1.55691013     5.74909150     0.76192691    -3.06284629     4.32432021
Ti      5.16122268     1.55691141     1.17908178    -0.75924987    -3.06291082     4.32763154
Ti      0.82326364     2.26465624     7.96086468     0.75924987     3.06291082    -4.32763154
Ti      2.16908251     0.35387365     1.17911844    -0.76192691     3.06284629     4.32432021
Ti      3.81540376     3.46769395     7.96082807     0.76192691    -3.06284629    -4.32432021
Ti      0.82325249     0.35387227     5.74905484     0.75924987     3.06291082     4.32763154
Ti      5.16123377     3.46769533     3.39089152    -0.75924987    -3.06291082    -4.32763154
O       1.89412851     1.34563886     4.66404466     3.05014143    -3.07432113     4.63920899
O       4.09035781     2.47592859     4.47590175    -3.05014143     3.07432113    -4.63920899
O       1.09815422     1.34565429     0.09410087    -3.04935956    -3.07554446     4.64010836
O       4.88633215     2.47591321     9.04584524     3.04935956     3.07554446    -4.64010836
O       4.09034671     0.56514477     0.09407121    -3.05014143     3.07432113     4.63920899
O       1.89413960     3.25642268     9.04587491     3.05014143    -3.07432113    -4.63920899
O       4.88632101     0.56512938     4.66407428     3.04935956     3.07554446     4.64010836
O       1.09816521     3.25643812     4.47587209    -3.04935956    -3.07554446    -4.64010836
O       0.21744307     2.32449402     2.46892752     3.15952906    -0.59686999     2.50382809
O       5.76704324     1.49707343     6.67101884    -3.15952906     0.59686999    -2.50382809
O       3.20968200     1.49703790     2.10107471     3.16137923     0.59719215    -2.50424512
O       2.77480427     2.32452960     7.03887150    -3.16137923    -0.59719215     2.50424512
O       0.21743193     0.41371020     2.10104554     3.15952906    -0.59686999    -2.50382809
O       5.76705434     3.40785725     7.03890068    -3.15952906     0.59686999     2.50382809
O       2.77479317     0.41374577     6.67104797    -3.16137923    -0.59719215    -2.50424512
O       3.20969310     3.40782168     2.46889835     3.16137923     0.59719215     2.50424512
