# total energy = -4986.95508873 eV

CRYSTAL
PRIMVEC
        3.57871791     0.00000000     0.00000000
        0.00000000     3.36438842     0.00000000
        0.00000000    -0.00006626     4.78490792
PRIMCOORD
6 1
Ti      1.78935880     1.68216118     2.39245406     0.00000000     0.00000000     0.00000000
Ti      0.00000000     0.00000000     0.00000000     0.00000000     0.00000000     0.00000000
O       1.78935880     0.65565688     0.93250813     0.00000000    -1.24493067    -0.79305372
O       1.78935880     2.70866549     3.85240004     0.00000000     1.24493067     0.79305372
O       0.00000000     1.02647785     3.32496313     0.00000000     1.24475841    -0.79288969
O       0.00000000     2.33784452     1.45994500     0.00000000    -1.24475841     0.79288969
