# total energy = -19961.31469563 eV

CRYSTAL
PRIMVEC
        7.60600008     0.00000000     0.00000000
        0.00000000     7.60600008     0.00000000
       -1.89786986    -1.89786986     4.85670466
PRIMCOORD
24 1
Ti      3.76878498     6.63727001     1.28603899    -0.72713190    -0.35307250    -1.07233399
Ti      3.80372099     2.88384599     1.25419998    -0.56307514     0.38884093    -1.47538799
Ti     -0.02223698     6.60200600     1.21735501     0.64183089     0.86648111    -0.09170640
Ti     -0.01281800     2.89323899     1.18133498     0.49572327    -0.62993491     0.03984054
Ti      5.73935120     2.82146922     3.58975479     0.63424176     0.77891676     0.15524378
Ti      5.75375720    -0.96661078     3.65204779     0.92052624    -0.78543528     0.33691697
Ti      1.92656122     2.82787221     3.56374980    -1.52228107     0.36645253     1.23439660
Ti      1.95598025    -0.99583978     3.68080582    -1.47899139    -0.08249902    -0.09875277
O       3.59756798     4.76240602     0.78819898     1.00258894    -0.48501411    -0.01057984
O       3.60425498     0.97815001     0.86257601     0.90808878     0.06625607    -0.17597614
O       0.04443798     4.80437797     0.64543500    -0.67966623    -1.42992624     1.20409357
O       0.05338203     0.97910200     0.77367698    -0.48376969     0.47273709    -0.01652089
O       5.93227621     4.72187824     4.10438781    -1.03017791     0.81335465    -0.44924182
O       5.84706724     0.93542223     3.94421983    -0.81539533     0.11779976     0.55909070
O       1.76351023     4.68719220     4.13450281     0.70917891     0.75556985     0.02140418
O       1.74891123     0.91285722     4.02536879     1.02567899     0.49941923     0.20052838
O       3.77063821     2.96718924     3.14257583     0.54855226    -0.58732965     0.88564227
O       3.80800622    -1.19459579     3.28314081    -0.21702381     0.52293841    -0.07714315
O      -0.06897180     2.85202423     3.18756484     1.18470461    -0.22158315    -0.60445115
O       0.02552121    -1.09617877     3.23491583    -0.54445289     0.26566885    -0.49151283
O       5.66867497     6.69111802     1.62710098     0.10347743     0.02280929    -0.00886440
O       5.74283499     2.97165898     1.59933600    -1.21609805    -0.11418325    -0.79286140
O       1.83902303     6.75430697     1.64285702     0.94800748    -0.36579535     0.93702758
O       1.83661400     3.11467400     1.67739499     0.15546361    -0.88247055    -0.20885207
