# total energy = -19901.65469147 eV

CRYSTAL
PRIMVEC
        8.48952811     0.00000000     0.00000000
        0.00002842     4.35038987     0.00000000
        0.00000000     0.00000000    12.82632794
PRIMCOORD
24 1
Ti      3.07706260     2.57803709     4.75847618     0.32289545    -0.40443108     2.81054976
Ti      5.41249412     1.77235297     8.06785188    -0.32289545     0.40443108    -2.81054976
Ti      7.32168133     1.77235452     1.65463661     0.32297721     0.40462828    -2.81156920
Ti      1.16787545     2.57803574    11.17169165    -0.32297721    -0.40462828     2.81156920
Ti      3.07704845     0.40284222     1.65468804     0.32289545    -0.40443108    -2.81054976
Ti      5.41250833     3.94754797    11.17164022    -0.32289545     0.40443108     2.81054976
Ti      1.16786124     0.40284055     8.06780045    -0.32297721    -0.40462828    -2.81156920
Ti      7.32169548     3.94754964     4.75852762     0.32297721     0.40462828     2.81156920
O       2.68699936     1.53184629     6.54517698     1.08298299     1.23864612    -2.28425631
O       5.80255743     2.81854377     6.28115109    -1.08298299    -1.23864612     2.28425631
O       1.55783457     1.53186380     0.13205422    -1.08318225     1.23870294    -2.28535392
O       6.93172228     2.81852626    12.69427346     1.08318225    -1.23870294     2.28535392
O       5.80254322     0.64334884     0.13201263    -1.08298299    -1.23864612    -2.28425631
O       2.68701350     3.70704123    12.69431512     1.08298299     1.23864612     2.28425631
O       6.93170813     0.64333133     6.54521858     1.08318225    -1.23870294    -2.28535392
O       1.55784852     3.70705880     6.28110949    -1.08318225     1.23870294     2.28535392
O       0.30846160     2.64615377     3.46471115    -2.26110275     0.71431494     0.13415610
O       8.18109512     1.70423636     9.36161691     2.26110275    -0.71431494    -0.13415610
O       4.55323628     1.70419575     2.94849364    -2.25995887    -0.71433757    -0.13451374
O       3.93632044     2.64619438     9.87783423     2.25995887     0.71433757     0.13451374
O       0.30844745     0.47095877     2.94845269    -2.26110275     0.71431494    -0.13415610
O       8.18110933     3.87943129     9.87787519     2.26110275    -0.71431494     0.13415610
O       3.93630630     0.47099938     9.36165780     2.25995887     0.71433757    -0.13451374
O       4.55325049     3.87939068     3.46467020    -2.25995887    -0.71433757     0.13451374
