# total energy = -19517.36457609 eV

CRYSTAL
PRIMVEC
        5.93400000     0.00000000     0.00000000
        0.00000000     9.29699974     0.00000000
        0.00000000     0.00000000     4.64899994
PRIMCOORD
23 1
Ti      4.49916801     6.96942001     2.27190901     0.80013403    -0.26865647     0.13203854
Ti      4.49903101     2.34806402     2.33704502    -1.13326916     0.27519864    -0.47262139
Ti      1.54038603     7.06672603     2.27515700    -0.68646269    -0.22131344    -0.78721140
Ti      1.45835302     2.31542601     2.36983999     0.93717105    -0.00683888    -0.36392128
Ti      2.95591998     4.58955302     0.14474501    -0.81990762    -0.45869217     1.37216407
Ti      3.03047698     0.11026101     4.58762703    -1.01922629    -0.58008454    -0.15855588
Ti      5.89503001     4.52129402     4.62570202     0.57412292     1.29972167    -0.45357516
Ti      5.92787700     0.06232200     4.60080502     0.67191332    -0.40267656     0.24700212
O       4.49524400     5.45190000     1.03527697    -0.64183860     0.17405655    -0.61635459
O       4.39360202     0.96983500     0.83925099     0.32189324     0.01711327     0.34416003
O       1.47449002     5.53860702     1.05383898     0.57256637     0.01912721    -0.69901070
O       1.48977700     0.95845600     0.93135101    -0.47763093    -0.42848350    -0.60939718
O       4.36786199     8.49679003     3.49799101     0.27658807    -0.28871237     1.31327987
O       4.36272098     3.58584200     3.79776098     0.47907280     1.21947108     0.41325408
O       1.34413001     8.44187000     3.76024501     0.69355096    -0.67967780    -0.85285580
O       1.57316099     3.65798701     3.86197399    -0.67569053     0.46593317    -0.39243045
O       2.98042301     1.50634300     3.21771402    -0.26442443    -1.09721251     0.18673569
O       5.90716802     5.87681600     3.30491301    -0.31237964     1.15341350    -0.30684842
O       5.88716797     1.38678201     3.12894999     0.06579147    -0.30827178     1.06048300
O       2.92874202     7.87274701     1.20891299     0.08675959    -1.00278434     1.60070026
O       2.85250102     3.30174298     1.50286498     0.99677978    -0.01293111    -0.27612347
O       5.93051299     7.77267901     1.46480200    -0.01895109     1.21713523    -1.06889180
O       0.03097798     3.21743001     1.42623598    -0.42656263    -0.08483512     0.38798013
