# total energy = -4986.13085336 eV

CRYSTAL
PRIMVEC
        2.86500346     0.00000000     0.00000000
        1.31707473     4.29146979     0.00000000
       -0.00000877    -0.00005883     4.54155055
PRIMCOORD
6 1
Ti      2.09103477     2.14570552     2.27077527     0.00000000     0.00000000     0.00000000
Ti      0.00000000     0.00000000     0.00000000     0.00000000     0.00000000     0.00000000
O       1.68917850     0.83633288     0.88508130    -4.06115382     1.87083743     2.13233183
O       2.49289109     3.45507816     3.65646920     4.06115382    -1.87083743    -2.13233183
O       0.40185267     1.30934883     3.15585758     4.06101396    -1.87245157     2.13438743
O       0.91521347     2.98206200     1.38569297    -4.06101396     1.87245157    -2.13438743
