# total energy = -19518.71340309 eV

CRYSTAL
PRIMVEC
        7.60600008     0.00000000     0.00000000
        0.00000000     7.60600008     0.00000000
       -1.89786986    -1.89786986     4.85670466
PRIMCOORD
23 1
Ti      3.83991000     6.71190501     1.16791499     0.17683026     0.19314957    -0.02690480
Ti      3.78222798     2.88824001     1.18077198    -0.16502220    -0.43943563     0.72699254
Ti      0.01769500     6.59289701     1.18438600    -0.07313891     0.54701937     0.12115145
Ti     -0.01864799     2.71308499     1.25156299     0.46624402    -0.17795383    -0.57620731
Ti      5.53006922     2.84029322     3.83066882     1.02630326    -0.18342205    -1.58600974
Ti      5.68531421    -0.87093976     3.58907082    -0.33190023    -0.77367094     0.40436217
Ti      1.98900424     2.92254123     3.66251983     0.32659193    -0.25912873    -0.13459653
Ti      1.88755821    -0.92339477     3.52019782     0.44054326     0.46729714     0.83966655
O       3.88347298     4.76198299     0.79690802     0.23042004    -0.07472117    -0.43891627
O       3.77588198     0.99477301     0.71468700    -0.20808820     0.64401787     0.66136048
O      -0.10246099     4.58154498     0.82495997     0.25439738     2.11232504     0.84031679
O       0.20056299     0.89765797     0.74954698     0.06336589    -0.49111945     0.33421320
O       5.69092021     4.69475224     4.06838682     0.56282189    -0.19196583     0.27058968
O       5.49741025     0.89107824     4.05032780     0.80072435    -0.04086950     0.19783772
O       1.92937925     4.86657620     3.99825481    -0.65259122    -2.15070674     0.81914400
O       1.84330021     1.01602424     3.86291381    -0.19803287     0.12452911     1.08913153
O       3.83730824     2.80504324     3.32024381    -1.76532317     0.34031674    -1.43218598
O       3.83378122    -1.11747678     3.31871179     0.03872211     0.80132265    -1.03079549
O      -0.01534778    -0.92032179     3.15310682     0.35021780    -0.15902485    -0.16121568
O       5.69812602     6.81636999     1.60689101     0.30287966    -0.46641243    -0.32424760
O       5.85878000     2.73606499     1.80295499    -0.85525362    -0.02985463     0.23633126
O       2.00193299     6.42515100     1.64128198    -1.15276070     0.62029172    -0.80262183
O       1.88239302     3.03093001     1.66398098     0.36204925    -0.41198344    -0.02739640
