# total energy = -4889.07319609 eV

CRYSTAL
PRIMVEC
        4.79196665     0.00000000     0.00000000
       -0.00000626     2.05370013     0.00000000
       -2.39601081    -1.02692436     5.20035300
PRIMCOORD
6 1
Ti     -0.00020476     1.54033887     1.30008820    -0.04791432    -0.04273304    94.44510999
Ti      2.39615410    -0.51356305     3.90026470     0.04791432     0.04273304   -94.44510999
O       0.00005091     0.51341245     0.84709500     0.04510719     0.04356273   -84.92404097
O       2.39589828     0.51336332     4.35325795    -0.04510719    -0.04356273    84.92404097
O      -0.00002003    -0.51344962     3.44727150    -0.00056461    -0.00138428     1.06166802
O       2.39596919     1.54022534     1.75308145     0.00056461     0.00138428    -1.06166802
