# total energy = -19519.14989021 eV

CRYSTAL
PRIMVEC
        7.60600008     0.00000000     0.00000000
        0.00000000     7.60600008     0.00000000
       -1.89786986    -1.89786986     4.85670466
PRIMCOORD
23 1
Ti      3.84674898     6.62085302     1.24597398     1.12103688     0.05798174    -0.10966196
Ti      3.75481898     2.90614499     1.25224600     0.44409242    -0.19255539     0.07854646
Ti      0.12677399     6.62016700     1.21932302    -1.57659822    -0.37147801    -0.62520870
Ti      0.00882800     2.82884198     1.06106002    -1.09322216     0.44531960     0.50702122
Ti      5.56384925     2.84503221     3.66360682    -0.50138536    -0.02029141    -0.05576596
Ti      5.68173824    -1.01993576     3.62584483    -0.13093708     0.23578259    -0.58964236
Ti      1.94744123     2.88088625     3.60632883    -0.00789020    -0.38258029     1.07139888
Ti      1.83825323    -0.96271979     3.65769183     0.86616975     0.34473415     0.98264848
O       3.98680701     4.70650601     0.79073200    -0.46060379     0.66212307     0.52818295
O       3.99865698     0.96747598     0.78250101    -0.67446232     0.01155506    -0.12481348
O      -0.14216902     4.72536800     0.71680001     0.72529022     0.60383434     1.28368518
O      -0.11212001     0.94420800     0.70373499     0.54488561    -0.96287592     0.97368561
O       5.79838621     4.68324121     4.07653584     0.39852319     1.24464245    -0.16058936
O       5.61750724     0.96173922     4.03628079     0.62300321    -0.36576399    -0.93412121
O       1.76371920     4.69540524     4.13108782    -0.31710584     0.96626746    -0.59124159
O       1.80187822     1.04587920     4.09225679    -0.28983157    -1.00665822    -0.76084216
O       3.75513421     3.01655623     3.23932779     0.18852698    -0.40695076    -0.57003461
O       3.81095723    -0.79791277     3.18553883    -0.48041363    -0.61798313     0.31034615
O       0.04146220    -0.90105476     3.22622383    -0.08280626     0.09166835     0.20489540
O       5.76693001     6.57269398     1.69106602    -0.33770707     0.07178343    -0.44394175
O       5.84846702     2.99160399     1.83940001     0.41975614    -0.72406688    -1.23908681
O       1.93636000     6.38562199     1.60810098    -0.08058175     0.61161296     0.37643407
O       1.77794502     2.94762799     1.61818000     0.70226007    -0.29610095    -0.11189445
