# total energy = -19072.95625486 eV

CRYSTAL
PRIMVEC
        5.93400000     0.00000000     0.00000000
        0.00000000     9.29699974     0.00000000
        0.00000000     0.00000000     4.64899994
PRIMCOORD
22 1
Ti      4.37327399     7.03375701     2.30895999     0.05202244    -1.21595973     0.74765291
Ti      4.39740199     2.26240499     2.33829599     1.32871601    -0.25126989    -0.51077349
Ti      1.39956900     7.18036599     2.40441098    -0.26793964    -0.84118762     1.62116136
Ti      1.73891402     2.42825602     2.17913202    -2.06954598     0.85899431    -0.44612462
Ti      3.06239600     4.64310401     4.52758800    -0.56820064     1.13121613    -0.15001313
Ti      3.03024700     0.01309100     0.08617900     0.36446121     0.70630981    -0.65416679
Ti      5.84822699     4.46393999     0.05756501     0.29029180    -0.06399170    -1.35982843
Ti      0.01431398     9.25826201     0.10682099    -0.59170362    -0.00761947     0.93077080
O       4.40069601     5.69656198     0.79221999     0.37294482    -0.72552393     1.16607671
O       4.34043098     0.61743401     1.30000700     1.61527379     1.31460939    -1.56210336
O       1.50038901     0.64580299     1.04516100    -1.02403606     2.87145381    -0.04060262
O       4.44551499     8.40185298     3.78649299     0.15317044     0.29530648    -0.19177686
O       4.37403299     3.89179302     3.55815401     1.19378858    -1.66919242    -0.53939733
O       1.36652098     8.46856202     3.74819098     0.18321457    -0.12682511    -0.42453223
O       1.58071701     3.95377698     3.65035400    -1.25761701    -1.12833367    -0.35013244
O       2.92815998     6.19255199     3.29709998    -0.87659918     0.13428645    -0.57616206
O       2.93783900     1.39957799     3.13895102    -0.39179102    -0.56519065     2.33312349
O       5.87670302     6.01539598     3.25911299     0.56793170     0.87836398    -0.81505569
O       2.80577298     8.11655098     1.48871203     0.23225478    -3.72238309     0.67602143
O       3.14777499     2.97796598     1.10837900    -0.13035704     1.37531830    -0.01966072
O       5.80764301     7.90205899     1.44056298     1.35553957    -0.57031537    -0.17662380
O       0.08007298     2.84062200     1.23166000    -0.53182003     1.32193421     0.34214685
