# total energy = -19519.28053430 eV

CRYSTAL
PRIMVEC
        7.60600008     0.00000000     0.00000000
        0.00000000     7.60600008     0.00000000
       -1.89786986    -1.89786986     4.85670466
PRIMCOORD
23 1
Ti      3.76665699     6.69830499     1.24951999     0.63202213    -0.05147042     0.10390166
Ti      3.79487098     2.89788400     1.19994402    -0.23798500     0.04827531     0.48070365
Ti      0.02540897     6.63708802     1.24321802    -0.98020362     0.34021570    -0.48857020
Ti     -0.06285700     2.85238698     1.00802202     0.44911558    -0.58090575     1.60350533
Ti      5.65230620     2.76460023     3.63531282    -0.55289511     0.98000384    -0.48957653
Ti      5.67454323    -1.06550379     3.58860282     0.56089356    -0.50788382     0.50075724
Ti      2.06666624     2.90758721     3.70689881    -0.20390064    -0.20972188    -0.50168155
Ti      1.91717325    -0.94611775     3.68259280    -0.70396985     0.18974517     0.26744908
O       3.99153801     4.83046901     0.85475001    -0.51841147    -0.85077887     0.01573207
O       3.80481200     0.98262998     0.83681201    -0.31139310     0.09809276    -0.25907011
O      -0.18316502     4.70988602     0.72131701     0.52989633     0.35913079     0.95742389
O      -0.10329498     0.92603399     0.66966100     0.69823166    -0.38870106     1.04864692
O       5.63210724     4.65398421     4.06913683     0.87154567     0.68655113    -0.49448708
O       5.70963721     0.92221423     3.98994879     0.41638440    -0.07716706    -0.54748834
O       1.91082021     4.74522421     4.08481280    -0.47134458     0.65742284     0.29982905
O       1.87719322     1.00586821     4.02538080    -0.29276366    -0.05667922     0.66218555
O       3.82134524     2.85072521     3.23913983     0.22966876    -0.17199555    -0.55455733
O       3.77119522    -0.98505377     3.28846079     0.13135720     0.16582362    -0.63117238
O       0.02804020    -0.97062178     3.25428583    -0.21069864    -0.20987357     0.02466666
O       5.73979402     6.76241498     1.70621203    -0.72629295    -0.23382649    -0.69056745
O       5.71777601     2.73784598     1.65709998     0.90038806     0.37347447    -0.37305101
O       1.86858202     6.64045999     1.66560497     0.73685093    -0.02141138    -0.37215009
O       1.86513200     3.05222802     1.72889097    -0.94649593    -0.53832107    -0.56242851
