# total energy = -4988.47667585 eV

CRYSTAL
PRIMVEC
        4.11253087     0.00000000     0.00000000
        0.41021798     4.09202045     0.00000000
       -2.26141090    -2.04604323     5.25509389
PRIMCOORD
6 1
Ti      0.30750590     3.06917100     1.31377322    -0.00007919     0.00007919     0.00000000
Ti      1.95383169    -1.02319410     3.94132005     0.00007919    -0.00007919     0.00000000
O       0.10259785     1.02299864     0.85601176    -0.00057516    -0.00161465    -0.94125371
O       2.15873962     1.02297815     4.39908161     0.00057516     0.00161465     0.94125371
O      -0.10257509    -1.02297805     3.48355859    -0.00161465    -0.00057516    -0.94125371
O       2.36391250     3.06895479     1.77153478     0.00161465     0.00057516     0.94125371
