# total energy = -19934.41565724 eV

CRYSTAL
PRIMVEC
        5.77613989     0.00000000     0.00000000
        0.00002273     4.09837298     0.00000000
        0.00000000     0.00000000     8.97397600
PRIMCOORD
24 1
Ti      2.09358646     2.42869202     3.32928109    -0.55944423     2.61616040    -4.41996631
Ti      3.68257627     1.66968096     5.64469501     0.55944423    -2.61616040     4.41996631
Ti      4.98155683     1.66968239     1.15767108    -0.55653323    -2.61590663     4.42169410
Ti      0.79460589     2.42869079     7.81630506     0.55653323     2.61590663    -4.42169410
Ti      2.09357509     0.37950563     1.15770706    -0.55944423     2.61616040     4.41996631
Ti      3.68258763     3.71886750     7.81626909     0.55944423    -2.61616040    -4.41996631
Ti      0.79459453     0.37950410     5.64465898     0.55653323     2.61590663     4.42169410
Ti      4.98156820     3.71886903     3.32931706    -0.55653323    -2.61590663    -4.42169410
O       1.82819280     1.44310682     4.57935128     1.84131884    -2.76717986     3.70140134
O       3.94796993     2.65526621     4.39462482    -1.84131884     2.76717986    -3.70140134
O       1.05992705     1.44312333     0.09239212    -1.83988853    -2.76907039     3.70260230
O       4.71623577     2.65524970     8.88158368     1.83988853     2.76907039    -3.70260230
O       3.94795861     0.60607967     0.09236298    -1.84131884     2.76717986     3.70140134
O       1.82820411     3.49229331     8.88161282     1.84131884    -2.76717986    -3.70140134
O       4.71622441     0.60606321     4.57938036     1.83988853     2.76907039     3.70260230
O       1.05993827     3.49230987     4.39459569    -1.83988853    -2.76907039    -3.70260230
O       0.20987446     2.49286277     2.42409481     2.45834474    -0.72575507     1.79277871
O       5.56628826     1.60551026     6.54988128    -2.45834474     0.72575507    -1.79277871
O       3.09795087     1.60547204     2.06292178     2.45847896     0.72612403    -1.79257610
O       2.67821185     2.49290099     6.91105417    -2.45847896    -0.72612403     1.79257610
O       0.20986310     0.44367623     2.06289309     2.45834474    -0.72575507    -1.79277871
O       5.56629963     3.65469675     6.91108281    -2.45834474     0.72575507     1.79277871
O       2.67820054     0.44371445     6.54990987    -2.45847896    -0.72612403    -1.79257610
O       3.09796219     3.65465858     2.42406617     2.45847896     0.72612403     1.79257610
