# total energy = -19516.68937618 eV

CRYSTAL
PRIMVEC
        5.17600016     0.00000000     0.00000000
        0.00000000     5.50899976     0.00000000
        0.00000000     0.00000000     9.26300011
PRIMCOORD
23 1
Ti      1.86739000     3.20783502     3.34859300    -1.58451362     1.10475227     1.57711269
Ti      3.39766498     2.21365300     5.79167699    -0.78457448     0.38104303    -0.72959219
Ti      4.35852799     1.99868501     1.52552302     2.57434859    -0.31777664    -1.10562876
Ti      0.93263098     3.35125502     7.85851299     0.56141858     0.16850682     1.56315005
Ti      1.79118800     0.44448201     1.27663001     0.76411852     1.28406982    -1.71920399
Ti      3.34764402     5.25340900     7.85065201    -0.23849253     0.22722441     1.25110080
Ti      0.68990801     0.63847500     5.77401501     0.13448649    -1.19573902    -2.51560555
Ti      4.30948702     4.86157801     3.45090799     1.77399371     0.06932262     1.60544832
O       1.83193200     1.94791500     4.70480698    -1.51484569    -0.34043887     0.70940928
O       3.38527398     3.76225202     4.61783701     0.24652826    -0.74889604    -0.13364779
O       0.64627603     2.48661797     0.32705202     0.10096340     0.00552505    -1.34374669
O       3.56479201     1.07876000     0.12080000    -1.25163611    -1.46643900    -1.41927313
O       1.57199902     4.86517002     9.13469198     0.60820573    -0.21632422    -1.50127463
O       4.19013897     0.78753201     4.75492001     0.39134467     0.46660192    -0.22866474
O       0.94151899     4.71879001     4.38508200    -0.60355486     0.11596914     0.29378978
O       5.15914100     3.09430698     2.82630098     0.41972606     1.52402222    -0.12164433
O       5.16463899     1.98706200     6.87891599    -0.76217296     1.16966674     0.07814357
O       2.77174302     1.79018298     2.40902403    -0.89164297     1.06591755    -0.12901312
O       2.77420501     3.53207600     7.15163601    -1.14224951    -1.23381964     1.34160881
O       0.24667799     0.60474699     2.25534402    -1.36764587    -0.60310852    -0.45544898
O       5.08526399     4.83766502     7.10579000    -0.27661584    -0.69303186     0.69275341
O       2.36286601     0.45226901     6.54169001     1.44225108     0.97207070     1.27219774
O       2.68546701     4.74870202     2.25622499     1.40055909    -1.73911822     1.01802970
