# total energy = -19958.77372621 eV

CRYSTAL
PRIMVEC
        5.93400000     0.00000000     0.00000000
        0.00000000     9.29699974     0.00000000
        0.00000000     0.00000000     4.64899994
PRIMCOORD
24 1
Ti      4.50652299     6.70341298     2.24101200    -0.79133520     1.98948977     1.22597623
Ti      4.50332300     2.57092702     2.30429001    -1.03343293    -3.38591272     0.36886474
Ti      1.55204401     6.79934700     2.03009602     0.33746050     3.15219344     2.73529585
Ti      1.45136000     2.35470901     2.36194498     1.27364219    -2.63584400     0.79250993
Ti      2.86810699     4.60631201     0.04695998     1.90398204    -1.79879072    -1.86796422
Ti      2.93102600     9.29078498     0.15845398     2.33276893     1.38870244    -0.67211773
Ti      0.01055502     4.68585598     4.59740299    -1.14855000    -1.91826247    -1.33600226
Ti      5.93103799     9.23590898     0.16410199    -2.03608435     0.71038167    -0.36830398
O       4.48010001     5.54941297     0.79121699    -0.07307926     0.12432497    -0.02167595
O       4.34512298     0.85692900     1.06048698     1.28951824     1.73919767     0.80775889
O       1.49464998     5.65642500     0.70850298    -0.74803240    -0.61491709    -0.96592036
O       1.46187602     0.91496202     1.04471300    -0.67129729     1.11879333     0.99154116
O       4.36249999     8.44774598     3.95394002     1.50604815    -0.68262891    -1.35495593
O       4.44208799     3.87488602     3.64223901    -0.13246071     0.80042816     0.94832373
O       1.49203298     8.48093101     4.09983498    -1.73218575    -2.00400108    -2.86653426
O       1.53339798     3.81038302     3.63390399    -0.03009554     1.15683590     1.65049766
O       2.91148301     6.06631300     3.12733600     0.08281681    -0.27474356     0.13715529
O       3.02043600     1.61316298     3.27757699    -0.46270927     0.17323020    -0.30561275
O       0.06807500     5.83522399     3.00162597     0.10883715     0.83071525     0.61399098
O       5.88307802     1.70936698     3.31034100     0.17310087    -0.87302663    -0.05397545
O       3.04096300     7.72177301     1.33758699    -0.51460237    -0.09764436     1.15552515
O       2.90816999     3.27600798     1.31653098     0.46313247     0.97094816    -0.35017847
O       5.84074299     7.90437498     1.55723101     0.81566324    -0.74194146     0.35163217
O       0.12041100     3.37151002     1.43035600    -0.91310500     0.87247204    -1.61583121
