# total energy = -19958.36670795 eV

CRYSTAL
PRIMVEC
        7.60600008     0.00000000     0.00000000
        0.00000000     7.60600008     0.00000000
       -1.89786986    -1.89786986     4.85670466
PRIMCOORD
24 1
Ti      3.95078501     6.60195600     1.23187802    -1.47999746    -2.88230104    -0.71481117
Ti      3.74035001     2.60560300     1.41384101    -2.45007427     1.54746118    -0.26790108
Ti      0.13378601     6.89174902     1.10791798     1.85611297    -3.74299923     0.84203608
Ti     -0.09191899     2.85282001     1.09623301     1.47572634     1.91603152     1.25945509
Ti      5.70598123     3.04592621     3.66404979     0.48575330    -0.31961858     0.23866248
Ti      5.76677422    -0.78134376     3.55497980     0.61335514    -0.79526179    -0.49481361
Ti      1.73157422     2.68413920     3.70654283     0.53334752     0.21172297     0.86863184
Ti      1.80088120    -0.96604175     3.72390281     0.34292924    -0.16075726    -1.40921008
O       3.72628500     4.66019998     0.83037600     0.00233868     0.86230513     0.50464706
O       3.86989000     0.82484599     0.80905899     0.77267798    -0.66808803    -0.02129800
O       0.06460302     4.85442899     0.69198101    -0.35736393    -0.72562420    -0.06570817
O       0.07982702     0.98927798     0.71233502    -1.29292933     1.66679589    -0.95951832
O      -1.53590077     4.85843920     3.95106183    -1.08675197     0.21386804     0.14143027
O      -1.52322079     0.95436424     4.11896283    -1.32768860     0.51778540    -2.06094564
O       1.71268921     4.49024524     3.99590483     0.54413973     2.87116122     0.74494734
O       1.52288222     0.82410223     4.38565780     0.99692248    -0.43466572    -2.44067406
O       3.59434524     2.52649122     3.42845383     1.73451569     0.28891368    -0.87312176
O       3.77115924    -1.01650177     3.17777379     2.29106203     0.44674374     0.57880824
O      -0.02113576     2.89599320     2.94391782    -1.46177322    -0.50445371     1.54298026
O       0.05170220    -0.82532775     3.16533579    -0.50175431    -0.50861427    -0.48920989
O       5.93106900     6.72753600     1.40482701    -2.85613132    -0.03101317     1.54420333
O       5.46576497     3.07049199     1.73738797     2.36250350    -0.58959660    -0.49456576
O       1.99489102     6.73300002     1.65615498    -0.81307697     0.16245547     0.22237557
O       1.82014002     2.58121698     1.44248898    -0.38384348     0.65774911     1.80359997
