# total energy = -19076.42878833 eV

CRYSTAL
PRIMVEC
        7.60600008     0.00000000     0.00000000
        0.00000000     7.60600008     0.00000000
       -1.89786986    -1.89786986     4.85670466
PRIMCOORD
22 1
Ti      3.82881299     6.60384299     1.22055902     0.44155242     0.59715667    -0.51863669
Ti      3.69581598     2.80053200     1.23467699     1.34609873     0.33068384    -0.47990944
Ti      0.24017699     6.68389200     0.96875500    -0.65153809    -0.56783966     1.11234706
Ti      0.00369800     2.81350600     1.14882799    -1.14235596     0.35731225     0.22385344
Ti      5.63834423     2.83050921     3.55025980     0.94776708    -0.23694858    -0.02505232
Ti      6.13004123    -0.85580979     3.59340182    -0.67922194    -0.55838699    -0.04482103
Ti      1.91637022     2.87210921     3.68257581    -1.11340250    -0.83994218     0.22953635
Ti      1.37924224    -0.97270076     3.90248579     1.23454392     1.21352952    -1.56275051
O       3.73291200     4.77155898     0.78404198    -0.01757967     0.23945438     0.19502699
O       3.89951901     0.94578802     0.93377998    -1.07475572    -0.17725295     0.36261078
O       0.01526401     4.74537302     0.63738998     0.11689165    -0.04006397     0.90963992
O      -0.06576700     0.92964700     0.66071701     0.27304406     0.93458452     0.99223664
O       5.78908323     4.81067524     3.95378582     0.25643395    -0.05376204    -1.17516196
O       5.48144423     0.91796520     3.93886180     0.85350218    -0.27238714     0.47263553
O       2.01281325     4.88450922     4.12896582    -0.43381571    -1.43798074    -0.01869835
O       1.92016124     0.88807621     4.12233782    -0.46989345    -0.10826328    -0.03796081
O       3.75735120     2.81143422     3.29517880    -0.37052516     0.38790942    -0.33042210
O       0.03173624     2.61496822     3.24484182    -0.63239082     0.82981588    -0.74827100
O       5.70220301     6.68214302     1.77366800    -0.03665340    -0.36066446    -0.16263468
O       5.60110999     2.94185397     1.60087099     1.23254669    -0.07682408     0.26462678
O       1.92728101     6.67902098     1.87782902     0.03125743    -0.14743791     0.52714499
O       1.85374802     2.90958099     1.66251098    -0.11150596    -0.01269174    -0.18534010
