# total energy = -18989.42589553 eV

CRYSTAL
PRIMVEC
        7.60600008     0.00000000     0.00000000
        0.00000000     7.60600008     0.00000000
       -1.89786986    -1.89786986     4.85670466
PRIMCOORD
22 1
Ti      4.95367999     4.94482701     0.34010402    -5.93039819     4.44751827     3.92600116
Ti      5.57882322     3.62436324     2.89381479    -4.52373428     4.28123751    -9.97798404
Ti      1.15690403     6.32101500     0.05845101    14.09196943     1.14057110     5.76480341
Ti      0.41298998     3.20607302     0.87319501     2.67814484   -16.24362233    19.08859377
Ti     -1.77609978     2.91883820     4.54893083   -35.21365915    44.80513014    35.69984029
Ti      5.72826621     1.64931224     3.83160080   -35.75669742   -54.28757424   -35.70581682
Ti     -0.50343378     2.26443920     4.15503780    72.21740121    -4.65206220    -8.70292338
Ti     -0.24372576    -0.49233376     4.01493283    -0.03939934    -0.31629877     1.83047238
O       4.25802601     4.01490299     2.14308399    -8.48746717     3.91321763    -4.50911369
O       3.44377801     7.22575199     0.29603800     1.83109227    -1.02500434    -0.25779458
O       1.13961200     4.77658902     1.44898500     1.38997385     0.98533914    -1.66162848
O       1.56226798     0.09874701     0.55753501     2.42195925     9.90605304     3.56273089
O      -0.87920900     4.72989998     2.35416300     3.83628711     5.55244229    -0.10396799
O       5.68098501     2.10829799     1.96658898    -0.90932651    -4.56215840     1.07804236
O       1.11199222     3.36052721     4.58055484     0.48987812     0.38928085    -0.15490285
O       2.29213898     2.57872302     0.49483000    -0.45347643     0.09376560    -2.15910345
O       3.43208124     2.03710222     4.08019584     0.54095208    -2.67364412    -5.13323173
O       0.30781002     2.02933702     2.27844203     0.20797584     0.05686151     0.60217932
O       5.36110620     4.78009525     4.63349283   -11.39116700     4.59466795    -1.20825361
O       6.34679202     3.87961200     1.12291301    -0.60875569     3.50329442    -1.00232308
O       0.61700321    -1.03560877     2.75694881     0.71996854     0.53552216    -0.74550115
O       4.84455925     0.08228024     4.52563883     2.88847864    -0.44453722    -0.23011896
