# total energy = -19956.21163749 eV

CRYSTAL
PRIMVEC
        5.93400000     0.00000000     0.00000000
        0.00000000     9.29699974     0.00000000
        0.00000000     0.00000000     4.64899994
PRIMCOORD
24 1
Ti      4.55905802     7.15241803     2.51834501    -2.32439665    -1.61601813    -2.44889825
Ti      4.60066802     2.41272800     2.18554798    -4.57722841    -0.17621139    -0.01655483
Ti      1.45374098     6.51754799     2.42196098     2.45669204     2.25263070    -1.46174828
Ti      1.39832199     2.41358601     2.48896699     2.88596487    -0.05773826    -2.37005894
Ti      3.12607100     4.51003699     4.64800001     0.05952826     3.01763162     1.81333674
Ti      2.93008100     0.23316502     4.43441502    -2.56235388    -1.42389777    -0.40123262
Ti      0.03803800     4.42054899     0.01315201    -0.95669524     3.89603520    -0.35859626
Ti      5.84045702     0.22033200     4.64683900     2.77788491    -3.22786464    -0.30204020
O       4.58115498     5.38780499     0.92948799    -0.45054872    -0.91427871    -0.57916897
O       4.40281102     1.22463998     0.59028801    -1.89151579    -0.45909352     1.42759913
O       1.51991898     5.45712499     0.84713499    -0.31124372    -0.51671634     1.15259975
O       1.14614897     1.21215098     0.70789099     2.37115860     0.05174836     0.98416723
O       4.24397302     8.63723600     3.48353198     0.14692009     1.69320910     2.58901443
O       4.36268801     3.51285099     3.81054600     1.89256994    -0.45728449    -1.13915725
O       1.23409897     8.48031801     3.82586198     1.51222085     0.26624194     0.03978809
O       1.58899403     3.66488399     3.76062400    -0.61221871     0.55215104     0.14166578
O       3.18268699     6.08094602     3.32747501    -2.17559760    -2.04130394     1.01925715
O       2.82817601     1.46370602     2.95034103     1.55754916    -2.49397948     1.87844790
O       5.88089902     5.92477099     3.47139101     0.54915519     0.51703824    -1.51501256
O       0.00665499     1.48388000     3.13030802    -1.51985626    -1.03637504    -0.00945061
O       2.89106799     7.66133398     1.60373701     0.28393346     0.80450619    -0.93318430
O       3.00743798     3.21407699     1.42976703    -0.22765919     0.63253146    -0.00974706
O       0.00548201     7.68990902     1.47512101     0.51835310     0.63582248    -0.03883833
O       0.01311698     3.31430797     1.48627300     0.59738421     0.10121537     0.53781199
