# total energy = -19072.57009958 eV

CRYSTAL
PRIMVEC
        5.17600016     0.00000000     0.00000000
        0.00000000     5.50899976     0.00000000
        0.00000000     0.00000000     9.26300011
PRIMCOORD
22 1
Ti      1.48383402     3.25617298     3.54192103    -0.85512352    -1.66918753     1.64689092
Ti      4.15897599     2.79011002     5.89310698     0.12158340    -1.29904907    -0.28911834
Ti      4.11693201     2.07640601     1.45742500     0.43639093    -0.47844597    -0.12823125
Ti      1.25858797     3.18912898     8.12900797    -1.19099122    -1.79366625    -0.27105634
Ti      1.56989401     0.41352001     1.30890501    -0.05722455     0.91617413    -0.10168665
Ti      3.30537001     5.19467699     8.03716799     0.90686519     0.77971920    -0.73837765
Ti      1.67201299     0.27567399     5.83942798    -0.46868811     0.85381868    -1.83369603
Ti      3.96112403     4.88785098     3.48747498     1.78424058    -0.65827567     0.28702881
O       3.26881598     3.23716499     4.33914100     0.03748696    -1.45370895     1.32683191
O       0.49495499     1.95807500     0.11002198     0.33694345    -0.46935454     0.26975459
O       4.66035101     3.79067497     7.41276799     0.39579937     0.61295765     0.72981664
O       3.31872301     0.69085000     0.30719501    -0.31295582     1.41375528     0.57722856
O       2.15759599     4.25875098     0.02543998    -0.47734810    -0.21809159     1.14493092
O       3.27498899     0.12064802     4.94976101    -0.32686987     2.28038449     1.11939677
O       0.55564998     4.60008597     4.56268500    -0.77816986     1.13104541     2.07530320
O       5.05007402     3.40065102     2.59104502    -1.13999825    -0.77838763    -2.15855966
O       0.67646998     2.10449501     5.36665399    -0.78920838    -0.84109043    -0.02671891
O       2.33020800     1.85394403     2.31802099    -0.17141140     0.36686390    -0.44668949
O       2.19264398     4.22742898     6.79585601    -0.68745179    -0.58114075    -0.46826517
O       4.80214601     0.64174399     2.31402798     1.52102868    -0.41983019     0.27541410
O       2.55309301     1.43764002     7.10631298     0.83782796     0.36303990     0.77406380
O       2.15624097     4.74730499     2.86804999     0.87727435     1.94246993    -3.76426097
