# total energy = -19923.03513587 eV

CRYSTAL
PRIMVEC
        6.95232960     0.00000000     0.00000000
        0.00002327     3.56266495     0.00000000
        0.00000000     0.00000000    10.50386527
PRIMCOORD
24 1
Ti      2.51989900     2.11123202     3.89685910    -0.39308917     0.91401491     0.11253928
Ti      4.43245403     1.45143309     6.60700627     0.39308917    -0.91401491    -0.11253928
Ti      5.99594480     1.45143436     1.35503162    -0.39040622    -0.91436099    -0.11081330
Ti      0.95640829     2.11123091     9.14883390     0.39040622     0.91436099     0.11081330
Ti      2.51988742     0.32989960     1.35507375    -0.39308917     0.91401491    -0.11253928
Ti      4.43246567     3.23276562     9.14879178     0.39308917    -0.91401491     0.11253928
Ti      0.95639666     0.32989823     6.60696415     0.39040622     0.91436099    -0.11081330
Ti      5.99595638     3.23276699     3.89690122    -0.39040622    -0.91436099     0.11081330
O       2.20046449     1.25447495     5.36004205     3.93862451    -0.79201345     1.63146172
O       4.75188859     2.30819017     5.14382332    -3.93862451     0.79201345    -1.63146172
O       1.27575753     1.25448928     0.10814317    -3.93909914    -0.79208776     1.62983498
O       5.67659561     2.30817583    10.39572188     3.93909914     0.79208776    -1.62983498
O       4.75187696     0.52685769     0.10810910    -3.93862451     0.79201345     1.63146172
O       2.20047608     3.03580742    10.39575600     3.93862451    -0.79201345    -1.63146172
O       5.67658403     0.52684335     5.36007612     3.93909914     0.79208776     1.62983498
O       1.27576895     3.03582181     5.14378925    -3.93909914    -0.79208776    -1.62983498
O       0.25260847     2.16701482     2.83735605     0.55484992    -0.16410946     0.87658607
O       6.69974456     1.39565035     7.66650932    -0.55484992     0.16410946    -0.87658607
O       3.72878197     1.39561709     2.41461002     0.55683045     0.16406884    -0.87595203
O       3.22357106     2.16704807     8.08925519    -0.55683045    -0.16406884     0.87595203
O       0.25259689     0.38568229     2.41457648     0.55484992    -0.16410946    -0.87658607
O       6.69975620     3.17698283     8.08928873    -0.55484992     0.16410946     0.87658607
O       3.22355948     0.38571554     7.66654281    -0.55683045    -0.16406884    -0.87595203
O       3.72879361     3.17694957     2.83732251     0.55683045     0.16406884     0.87595203
