# total energy = -4978.21752101 eV

CRYSTAL
PRIMVEC
        4.29446160     0.00000000     0.00000000
        0.00000000     2.24292596     0.00000000
        0.00000000    -0.00011830     5.98113503
PRIMCOORD
6 1
Ti      2.14723060     1.12140378     2.99056751     0.00000000     0.00000000     0.00000000
Ti      0.00000000     0.00000000     0.00000000     0.00000000     0.00000000     0.00000000
O       2.14723060     0.43709017     1.16563514     0.00000000    -0.61673280     0.53376816
O       2.14723060     1.80571743     4.81549994     0.00000000     0.61673280    -0.53376816
O       0.00000000     0.68426714     4.15620387     0.00000000     0.61678834     0.53322437
O       0.00000000     1.55854047     1.82493116     0.00000000    -0.61678834    -0.53322437
