# total energy = -19517.04316691 eV

CRYSTAL
PRIMVEC
        5.17600016     0.00000000     0.00000000
        0.00000000     5.50899976     0.00000000
        0.00000000     0.00000000     9.26300011
PRIMCOORD
23 1
Ti      1.93292299     3.16543501     3.48761400    -1.00625687     0.43247848     0.93920634
Ti      3.36613602     2.28733501     5.90521599     1.77930072     0.74320361    -2.39737281
Ti      4.31051902     2.06858297     1.48295299     0.30969489     1.14373381    -1.22436441
Ti      0.78823401     3.49217598     7.79000501    -3.04903252     0.21383744     1.85645673
Ti      2.02232098     0.08863401     1.40708898    -0.05225949     0.98739937    -1.16146415
Ti      3.15779899     5.20403899     7.94469099     0.61866241    -0.78686482     2.57274936
Ti      0.86177198     0.59059700     5.91656599    -2.25518792    -0.61178677    -2.27101307
Ti      4.62548701     4.95642102     3.23582802    -0.64401222    -0.07347547     2.55131433
O       1.78652102     1.83379698     4.81916102    -0.29265541    -0.25505867    -0.11254365
O       3.48098600     3.49073302     4.46304500     1.00738019     1.04770282     0.23166548
O       4.76082102     2.81682601     9.16309599     0.36963144     0.09721062     0.19299376
O       3.45971202     0.66261803     0.31181902    -0.00753693    -0.26360579    -0.36978622
O       1.44451498     4.77413100     9.10307602     0.98128014    -0.06908094     0.14199977
O       4.41529299     0.75772298     4.81294599    -0.91997113     0.41922598    -0.20024582
O       0.90663398     4.67577002     4.35635799     1.67477917    -0.34451921     1.02110474
O       0.20522901     3.43973801     2.39262498     0.71687602    -1.01695292     0.10230937
O       5.14293298     2.18039501     6.66223802     0.11638951    -0.26158465     0.26142292
O       2.55224299     1.89403502     2.28185802     0.71891311    -1.55683311    -1.10622757
O       2.44621698     3.68456102     7.06898403     1.54369374    -1.61147910    -1.29429124
O       0.28008902     0.63245201     1.99382298    -0.50857468     0.48369359     0.29282022
O       4.85827399     4.85852598     7.22532002     0.43696917     0.60849061    -0.70118046
O       2.54211999     1.01054101     7.00644099    -1.65721981     0.41814200    -0.03041488
O       2.99110201     4.32971101     2.19436402     0.11913597     0.25612336     0.70486151
