# total energy = -39040.39494390 eV

CRYSTAL
PRIMVEC
        7.60629642    -0.00000847    -0.00005503
       -0.00000847     7.60629642    -0.00005503
       -3.80314186    -3.80314186     9.70738094
PRIMCOORD
46 1
Ti      1.92035153     4.73632921     6.07688621     0.00965372     0.00767500    -0.01134345
Ti      3.80310638     6.64745993     1.20784577     0.00000283    -0.01911256     0.01231122
Ti      1.81714216     0.95383861     6.01641866    -0.00249628    -0.00343371    -0.02396732
Ti      3.80308869     2.87464874     1.18462461    -0.00012727     0.02087479     0.03355394
Ti     -1.92060823     4.73625046     6.07698172    -0.00965732     0.00770868    -0.01160314
Ti     -0.00001171     6.67479978     1.36165125    -0.00008253     0.02908279     0.00179000
Ti     -1.81717898     0.95376104     6.01646211     0.00259039    -0.00345916    -0.02384699
Ti     -0.00005065     2.79691605     1.16427945    -0.00007251    -0.00244743     0.01103955
Ti      3.80319466     0.93981680     8.64165540    -0.00000746     0.03808757     0.01643681
Ti      5.70919650     2.86131461     3.60672792     0.01508647    -0.00392736    -0.00155166
Ti      3.80319816    -2.81564542     8.50006572     0.00002083     0.00908345     0.00333267
Ti      5.67680856    -0.95739135     3.66299177     0.00490798    -0.00684634    -0.01048728
Ti      0.00010961     0.94203599     8.42754991    -0.00022600    -0.00056564     0.00647764
Ti      1.89732946     2.86134818     3.60673530    -0.01496537    -0.00376590    -0.00162494
Ti      0.00008911    -2.89756242     8.49281409    -0.00001620     0.00759067     0.01590511
Ti      1.92960760    -0.95731168     3.66300344    -0.00493935    -0.00694558    -0.01061095
O       2.00313127     2.83038362     5.64684576     0.00560346    -0.00827150    -0.00047205
O       3.80317119     4.75417384     0.75365811    -0.00000977    -0.00317171    -0.02299724
O       2.05229704    -0.92672564     5.70141719     0.00122873     0.00630692     0.00282873
O       3.80315844     0.95418055     0.75748871     0.00004217    -0.00246158     0.00826533
O      -2.00327706     2.83034864     5.64686834    -0.00563072    -0.00825839    -0.00040495
O       0.00004819     4.83010268     0.82057474    -0.00003291    -0.00075282    -0.01169621
O      -2.05242064    -0.92674610     5.70145674    -0.00121947     0.00628764     0.00282667
O       0.00008736     0.87147077     0.78318703    -0.00002108    -0.00000026    -0.02315279
O       5.73911329     4.74983470     4.09271139     0.00711322     0.00522371     0.00118708
O       3.80310081    -0.94617839     8.91621369     0.00002725    -0.00023577    -0.00507973
O       5.65438981     0.95566814     4.04806857    -0.00221012    -0.01112003     0.00122976
O      -0.00003774     2.83826248     8.89047932     0.00001131    -0.01073950     0.00406826
O       1.86716109     4.74987000     4.09271255    -0.00701474     0.00523734     0.00119248
O      -0.00003843    -0.92189858     8.83155189     0.00003060    -0.00949534     0.01338105
O       1.95200467     0.95569946     4.04809543     0.00225409    -0.01107529     0.00114157
O       2.03908628     1.12402146     8.01519891     0.01175714    -0.00829387     0.00214764
O       3.80317786     2.89860331     3.15982102     0.00002623     0.00029953     0.02325589
O       1.92002113    -2.96372120     8.09922316     0.00837177     0.00368182    -0.01179494
O       3.80316742    -0.99589934     3.22444988     0.00001028    -0.00524942     0.00483213
O      -2.03914017     1.12405840     8.01515388    -0.01173375    -0.00830364     0.00214096
O       0.00003215     2.82063049     3.22391348     0.00002571    -0.00424026     0.01766503
O      -1.92005176    -2.96370840     8.09922161    -0.00836149     0.00369211    -0.01176794
O       0.00001270    -0.92435865     3.32624215    -0.00006608     0.00600841     0.00249191
O       3.80308203     4.71053445     6.50036711    -0.00001337    -0.01055207     0.00257805
O       5.68976388     6.65692994     1.67316327     0.01309078     0.00753796    -0.00776448
O       5.71681760     2.84989117     1.59554617     0.01774499    -0.00018923     0.01152755
O      -0.00003222     4.78035106     6.48135888     0.00000000    -0.00610971    -0.00928811
O       1.91655267     6.65693735     1.67317839    -0.01316611     0.00757473    -0.00780896
O      -0.00002416     0.89912169     6.44756764     0.00016044    -0.01264340    -0.00792311
O       1.88952382     2.84995738     1.59557169    -0.01769074    -0.00028436     0.01158000
