# total energy = -39036.11011815 eV

CRYSTAL
PRIMVEC
        7.60600008     0.00000000     0.00000000
        0.00000000     7.60600008     0.00000000
       -3.79573973    -3.79573973     9.71340985
PRIMCOORD
46 1
Ti      1.92599146     4.69312544     6.18617561     0.17978137     0.63008789    -0.00021237
Ti      3.74668399     6.84837998     1.38364002    -0.33210875    -1.71584227     0.30882920
Ti      2.08751143     0.91123645     5.93666161    -1.29732437    -1.20308158     2.28712669
Ti      3.92411898     2.79174099     1.15648502    -1.91861188    -0.97491383     0.60443958
Ti     -1.85975053     4.86126844     6.11104165    -0.36979316     0.90610774     0.82924998
Ti     -0.05612798     6.66656600     1.17481398     0.68705764     1.45483330     0.48909856
Ti     -1.87516054     1.02250544     5.97389462     0.36669833    -1.85296980     0.19657197
Ti     -0.12273197     2.93325299     1.08423598     1.89207012    -1.17574380     1.61656757
Ti      3.83056742     0.99939346     8.51426161    -1.08328175     0.47859021    -1.02794234
Ti      5.69532799     2.93132398     3.81673701     0.62309577    -0.84664299    -2.20229440
Ti      3.74437345    -2.71991857     8.53856063     0.38364833    -1.26799193    -0.07904448
Ti      5.70955799    -0.95709299     3.62172302     0.25878137     0.87185472     1.90710902
Ti     -0.00111355     0.85428544     8.25785263     1.04260380     0.88041650    -0.74756935
Ti      1.87647301     2.76625201     3.41295698    -0.58314030    -0.17430158    -0.47496083
Ti     -0.04572557    -3.01534055     8.56533361     0.12207037     0.17489601     0.64307042
Ti      1.80978498    -1.06418900     3.77697600    -0.06751951    -0.35392637     0.46696264
O       1.87217847    -1.13367955     5.74300263    -0.23489222     1.29864618    -1.61894533
O       3.62864402     0.91638101     0.89283500     0.34682395     1.51440732    -0.91876503
O      -2.03915056     2.88703846     5.64796663    -0.06390351     1.12212240     0.77260804
O       0.04462499     4.82136901     0.84798501    -0.45595960    -0.60392639    -1.15256478
O      -1.89632255    -0.99737455     5.62837860     0.36035361     0.27999195     0.73659433
O       0.10926801     0.93328298     0.76487603    -0.21720868     0.22945742     0.39607653
O       3.54131342     2.94552244     8.88026361     0.65179032    -1.73359035     0.28659198
O       5.90614898     4.84125200     3.97792302    -0.52570774    -2.12635453     0.75257657
O       3.63692543    -0.90548657     8.87998061     0.69135113     1.68308872     0.28955363
O       5.82566398     0.98803002     4.13963102    -0.53934899     0.27906430    -0.87229515
O       0.15055744     2.65000145     9.11700963    -0.39016454     0.00989901    -0.51462526
O       1.94229900     4.43783002     4.18986502    -0.11262053     0.99468793    -0.21504766
O      -0.04403453    -0.82514154     9.00007860    -0.01525642     0.36638979    -0.96567071
O       1.79782901     0.98236200     4.16751601     0.53020846     0.18362620    -2.49230055
O       1.90072546     0.81449242     7.91048164     0.14235406     0.91035598     0.80765014
O       3.92820401     2.68827102     3.09370700    -0.48864759     0.86924531     0.90970806
O       1.88056746    -2.66005053     8.19778361    -0.90348162    -0.94606141    -0.19879366
O       3.85249500    -0.86052301     3.39109699    -2.03659677    -0.23195627    -0.50461672
O      -1.95500952     1.05782045     7.98110060     0.32437255     0.12796488     0.48084069
O      -0.07543797     2.71737699     3.10849501    -0.15579657     0.73616727     0.12902829
O      -1.87469656    -2.66153656     8.20263865     0.29618040    -0.85229402    -0.57757874
O      -0.02558900    -0.81207599     3.30356901     2.02791466    -0.49555461    -0.54618942
O       3.83285045     4.99554347     6.61285361     0.01966226    -1.40954664    -0.80424677
O       5.69329098     6.61194501     1.79593800    -0.08064062    -0.08314848    -2.71934189
O       3.80628443     0.62851043     6.36351862     1.41625568     1.17203524     0.45552303
O       5.68905401     2.67436900     1.32993001     0.35304422     0.72349379     0.33606645
O       0.01245646     4.71807843     6.60425665    -0.22122217    -0.89124779    -0.44728007
O       1.92005001     6.50711002     1.63237201    -0.16014636    -0.09634518     0.61543902
O       0.05636643     0.85445245     6.20356263    -1.19494558     0.68955033     1.93148360
O       1.85713999     2.86008799     1.47303901     0.73220109     0.44845918     0.83151821
