# total energy = -19519.21557171 eV

CRYSTAL
PRIMVEC
        7.60600008     0.00000000     0.00000000
        0.00000000     7.60600008     0.00000000
       -1.89786986    -1.89786986     4.85670466
PRIMCOORD
23 1
Ti      3.70491101     6.67347002     1.23283398     0.41715059     0.11943216     0.49343885
Ti      3.82170000     2.84388601     1.19402899     0.05106316    -0.18486779     0.24921995
Ti     -0.10289201     6.66522898     1.18511801     0.30087780    -0.34551834    -0.21122546
Ti     -0.00919202     2.80600100     1.20530300    -0.34208772     0.41671453    -0.73588959
Ti      5.68862623     2.82574323     3.58678584    -0.34017122    -0.16513045     1.33092690
Ti      5.76374320    -0.97330577     3.62472282    -0.95550276     0.23473461    -0.08534549
Ti      2.04881122     2.89667123     3.64954880    -0.14615133    -0.43939809     0.87755897
Ti      1.85844521    -0.96702777     3.62885479     1.09823992     0.44014500     0.50461852
O       3.96260599     4.70432500     0.79148300    -0.52299729     0.71898587     0.41549171
O       3.52728599     0.97248300     0.83398298     0.27877582    -0.06814120     0.02179448
O      -0.20801503     4.79405198     0.71998798     0.18696169    -0.12479008     1.00339009
O       0.15174697     0.94586502     0.69924799    -0.19699774    -1.04684484     0.72168141
O       5.88142725     4.68431321     3.95491683     0.29245358     0.66615019     0.07324407
O       5.78698324     0.91159222     4.15967683    -0.00487738     1.05711357    -1.48906215
O       1.80984620     4.79181324     4.13190879    -0.21077012    -1.07969815    -0.33415123
O       2.03601021     0.94659724     4.07797679    -0.42101187     0.26088711    -0.24082375
O       3.82371024     2.91856224     3.22459883     0.14294953     0.14169175    -0.51212126
O       3.80965323    -1.09141977     3.30351683     0.18303587     0.27391155    -0.45240068
O       0.05578825    -0.77177576     3.19809181    -1.53022218    -0.44133491    -0.69746470
O       5.62177198     6.94534599     1.60725800     1.07945312    -0.64375305     0.13441784
O       5.72831801     2.58038199     1.67740102     0.37150475     0.20862067    -0.54483059
O       1.87200299     6.53121701     1.68142901    -0.07916867    -0.13318834    -0.41642605
O       1.77373298     2.92783898     1.75072800     0.34749243     0.13427823    -0.10604185
