# total energy = -19960.54879157 eV

CRYSTAL
PRIMVEC
        5.93400000     0.00000000     0.00000000
        0.00000000     9.29699974     0.00000000
        0.00000000     0.00000000     4.64899994
PRIMCOORD
24 1
Ti      4.50024198     6.96610001     2.40279402    -0.75520013     0.52026086    -0.94879784
Ti      4.43248601     2.32139899     2.22398900    -0.12008033    -0.43811948     1.11256894
Ti      1.47807498     6.95510302     2.34687502     0.70087681     0.72005031    -0.69782851
Ti      1.49100601     2.39768302     2.29407302     0.15957506    -1.13708956     0.59216102
Ti      2.98974002     4.68832300     4.64231601     0.06405829    -1.40580491    -0.22983460
Ti      2.96628699     9.29068100     0.04684499    -0.62645440     1.64410332     0.25958176
Ti      5.93076599     4.62465800     0.03305400     0.16429690    -1.56427003    -0.26963040
Ti      0.00703499     0.02092002     4.59749899     0.96246891     1.52194143     0.49980027
O       4.45184602     5.56840398     0.92793602    -0.14638890    -0.29672238    -0.14213038
O       4.46130199     0.91019799     0.92550598     0.15217491    -0.44037460    -0.33834959
O       1.46256099     5.42981098     0.96788001     0.20444289     0.70185769    -0.10184246
O       1.37331101     0.92038100     0.98265501     0.26692714    -1.14158720    -1.37504525
O       4.42277598     8.50588298     3.81376398     0.23963745    -1.79782373    -1.39201068
O       4.42118401     3.73125800     3.65631798     0.05605110     1.07280142     1.17994961
O       1.57454802     8.38798102     3.82511103    -1.06849816    -0.71222438    -0.77057379
O       1.43675698     3.67057201     3.69900999    -0.04264793     1.97763466     1.21415404
O       2.99264700     5.98925902     3.25066197    -0.03221311     0.76517164    -0.30409580
O       2.86625000     1.41240398     3.21205500     0.88104616    -0.35840111     0.58836427
O       0.03824602     6.09657701     3.20021201    -0.39648457    -0.35130744     1.07186348
O       5.92426298     1.54989698     3.13431098    -0.67944280    -2.28635202     1.90541029
O       2.97935999     7.90007298     1.55979101     0.15624857    -0.19531444    -0.50455424
O       2.91817901     3.11933701     1.32462501     0.77938702     1.33667666    -0.76382927
O       0.03931300     7.79552301     1.31365601    -0.25326275    -0.15071709     1.16470965
O       5.91794302     3.16058198     1.39765200    -0.66651863     2.01561090    -1.75004053
