# total energy = -19070.13501691 eV

CRYSTAL
PRIMVEC
        5.93400000     0.00000000     0.00000000
        0.00000000     9.29699974     0.00000000
        0.00000000     0.00000000     4.64899994
PRIMCOORD
22 1
Ti      4.65825600     6.70319099     2.53828800    -3.63513627     1.64914783    -1.95272606
Ti      4.36811801     2.40443299     2.35142202    -0.07247171     0.38180356    -0.67608802
Ti      1.67771202     7.35239803     2.10975598     1.88466662     0.43492489    -0.41346208
Ti      1.50764101     2.36855303     2.01904198    -0.43250419     0.35951852     1.48689214
Ti      2.90028800     4.70432998     0.35166702    -1.35915505    -1.23730863    -3.29283978
Ti      3.01013398     0.16882501     4.50457398     1.28297041    -0.84875515     0.39742533
Ti      5.76780099     4.62707301     4.55594402     1.76432327    -2.55075254     0.38964157
Ti      0.03260901     9.13738798     0.07013699    -3.71928079    -0.70774449     1.82737805
O       4.35077200     5.08594298     1.28681000     0.73222448     1.89849377     0.30599250
O       4.40688902     0.76106299     0.89284701     0.90687753     1.12310790     0.36240304
O       1.30052898     0.53040002     1.23167000     1.15405217     2.09685085    -0.03970453
O       4.48691602     8.47919001     3.51424802    -0.61796873     1.26507450     0.61768282
O       4.37136303     3.58082402     3.83465802     0.78959250     0.97442043    -0.82702546
O       1.31245700     8.67562400     3.66693698     2.47177902    -1.42313801    -2.40540597
O       1.37493299     3.64994002     3.75116798    -0.55126940     1.24053434     0.22555217
O       3.06291999     6.13315702     3.27347697    -2.03175178     0.13310477     0.43534938
O       2.92006198     1.65560199     3.24963902    -0.49946294    -1.46930296    -0.12237684
O       5.82694797     6.26449802     3.65119899     3.15004091    -1.49813017     2.07171651
O       3.12870498     7.85253101     0.86904197    -2.53946745    -2.02168256     3.00331057
O       2.99022803     2.71028500     0.98829302    -0.28463665     2.24823232     0.94711299
O       5.85480402     7.78389101     1.58779798     1.36557742    -0.26108534    -2.43845160
O       0.03056702     3.41002000     1.51736502     0.24100013    -1.78731331     0.09762277
