# total energy = -19958.41910485 eV

CRYSTAL
PRIMVEC
        5.93400000     0.00000000     0.00000000
        0.00000000     9.29699974     0.00000000
        0.00000000     0.00000000     4.64899994
PRIMCOORD
24 1
Ti      4.44155902     7.00405302     2.16213802     3.44161312     1.01406326     0.69166017
Ti      4.45990401     2.57722402     2.45875700    -0.77948729    -2.00014597    -1.15325590
Ti      1.51393801     6.73458798     2.32541799    -2.06700419     2.09216424     0.72464410
Ti      1.49192598     2.37632399     2.46815498     0.95677340    -1.76026401    -1.69505875
Ti      2.95293098     4.82340798     0.00631298     1.02957473    -0.10233431     1.21464718
Ti      2.92982001     9.05813601     0.05317702     0.22904707     1.56003953     0.09199462
Ti      0.08623700     4.57682599     4.57793700    -1.37593794     0.76647210     0.77301042
Ti      5.89660098     0.02416202     4.56605601    -0.17932603     0.11417271     1.96267367
O       4.48481598     5.67533102     0.84258099    -0.49091582    -1.80278981    -1.29439331
O       4.52112299     0.61420000     1.08521300    -1.61977939     1.40836856    -1.23134136
O       1.41201498     5.75329402     0.66747402     0.47213545    -0.59019926     0.13385939
O       1.29502098     0.72395200     1.09000602     2.14213828     0.73814059    -0.75188880
O       4.58553402     8.28002902     3.68660502    -2.08117765     0.56483301     0.43419212
O       4.37066102     3.89367800     3.72097900     0.59231323    -0.59446061    -0.15255209
O       1.37736001     8.18228099     3.83802999     1.73378138     0.49422046    -0.74067030
O       1.51668402     3.84456400     3.74220800     0.39171054    -0.23328476    -0.19634597
O       3.11705800     6.07964800     3.22753502    -1.66538024    -0.40598197    -0.33874580
O       2.92442102     1.60902402     3.36328502     0.87064244    -0.53096051    -0.24779787
O       0.07098802     5.82176701     2.90165201    -0.07813123     0.06601953     1.36446953
O       5.90783700     1.63761801     3.35860900    -0.98405076     0.00011030    -0.07038912
O       3.01084900     7.80006198     1.38095201    -1.59671171     0.18940861    -0.25457916
O       2.77195601     3.27818099     1.33874901     1.67163754     0.27723856     0.56013431
O       5.89566000     7.89061198     1.42523600     0.93655038    -1.41603533     0.61562363
O       0.08648000     3.33360802     1.43076098    -1.55001557     0.15120458    -0.43989046
