# total energy = -19515.61037643 eV

CRYSTAL
PRIMVEC
        5.17600016     0.00000000     0.00000000
        0.00000000     5.50899976     0.00000000
        0.00000000     0.00000000     9.26300011
PRIMCOORD
23 1
Ti      1.80957601     3.19804498     3.40161100    -0.46201070     1.28796941     1.11188709
Ti      3.25493302     2.29438000     5.85029702     2.07782108     1.18195533    -2.31139509
Ti      4.35863499     1.95861899     1.42021702     1.46045244     1.47755363    -1.10251078
Ti      0.93286001     3.17389000     7.68357699    -2.26814757     0.34493161     3.13711597
Ti      2.04346701     0.23634601     1.33495799    -0.44662444     0.23601193    -1.95144411
Ti      3.33074401     5.27969498     7.85422501     0.91875140    -0.93529826     1.86039077
Ti      0.69419800     0.58246900     5.96862899    -1.69438975    -0.81243753    -1.67898627
Ti      4.45693803     5.05622602     3.29508201     0.85783063    -1.47924336     2.96716908
O       1.65852501     1.99175300     4.97054101    -1.73610849     0.23353647    -1.33337639
O       3.63103400     3.61572998     4.50515999    -1.34664021    -1.05148285     0.07333869
O       0.26758202     2.84875101     0.25799301     0.24691238    -1.12573428    -2.89238131
O       3.53640800     0.90329202     0.05841699    -0.02907327     0.43068719     1.32592328
O       1.85515801     4.70726199     9.13252802     0.63514165    -0.32259746    -1.42022135
O       4.12744798     0.71776300     5.13189599     0.50229347    -0.44989026    -2.42704361
O       0.88490703     4.77519602     4.39282900     0.74716208     0.71815694     0.78678434
O       0.09280398     3.53272398     2.44881699     1.00100154    -1.73299591     1.32143773
O       4.68021600     1.88991400     7.02681802     3.37680124     0.92695991     1.07729520
O       2.60124999     1.86706101     2.26608198     0.14146343     0.62323307     0.32389330
O       2.62264500     3.67287202     7.02823801    -0.18933714     0.00903589     0.24512187
O       0.23009802     0.45963198     1.84208199    -0.13553318     1.00297435     0.72638216
O       0.01080601     4.76724502     7.25278999    -0.42545371    -0.52769109    -0.04893531
O       2.36915200     0.98247001     7.08137900    -2.95604365     0.83754539    -0.82111552
O       2.90268401     4.52994099     2.27774198    -0.27626925    -0.87317987     1.03067002
