# total energy = -19518.71880292 eV

CRYSTAL
PRIMVEC
        7.60600008     0.00000000     0.00000000
        0.00000000     7.60600008     0.00000000
       -1.89786986    -1.89786986     4.85670466
PRIMCOORD
23 1
Ti      3.74999400     6.66468700     1.11608298     1.90903272    -0.19762535     1.02880494
Ti      3.79530501     2.81023098     1.18732902     0.39336427     0.27926947     0.93762613
Ti      0.03532300     6.67182798     1.21298300    -1.56418081     0.34169151    -0.57159681
Ti      0.03331398     2.88197101     1.13891697    -0.65227549    -0.48963747     0.07568688
Ti      5.68622022     2.90739522     3.67914981    -1.02029227     0.31451802     0.19603949
Ti      5.63352824    -0.92459876     3.56191382    -0.44711732    -0.04450633     0.12816671
Ti      2.03851724     2.84335620     3.73680484     0.69753052    -0.74790616    -0.46860121
Ti      1.85839922    -0.99325480     3.59650883     0.73949325     0.34443925     0.35732125
O       3.96649798     4.68979501     0.78813098    -0.87159607     0.13849149     0.82634823
O       3.78769301     0.96572398     0.79913099    -0.24912816    -0.63884121    -0.24799662
O      -0.20982402     4.77127598     0.79631497     1.36665857     0.35195587     0.68147706
O      -0.02824902     0.94449000     0.78286800     0.46597148     0.27237094     0.16386161
O       5.63432121     4.82250224     4.04719883     0.66761264    -0.83612640    -0.04003749
O       5.52171520     1.01993925     4.11539279     1.14120513    -1.10063825    -0.75818107
O       1.98423223     4.70263920     4.04932782    -0.82850282     1.05755503    -0.25120818
O       1.97223123     0.90408324     4.10389980    -0.76127745    -0.17261030    -0.34800100
O       3.84233125     2.81844021     3.47839780    -0.44998436     0.20576238    -1.68391250
O       3.78078423    -0.96985680     3.19178783    -0.45651008     0.06805378    -0.08586639
O      -0.05465676    -1.02904575     3.19837582     1.17920862     0.44197177    -0.10045767
O       5.66643899     6.66637301     1.55117600     0.22612578     0.33073732     0.74982498
O       5.77929699     2.77802800     1.80074002     0.17661557     0.02827803    -0.47247638
O       1.96042301     6.56396499     1.56839802    -1.68202017    -0.01800956     0.35693481
O       1.86074898     2.87073398     1.77295302     0.02006618     0.07080564    -0.47375627
