# total energy = -19517.04036890 eV

CRYSTAL
PRIMVEC
        5.17600016     0.00000000     0.00000000
        0.00000000     5.50899976     0.00000000
        0.00000000     0.00000000     9.26300011
PRIMCOORD
23 1
Ti      1.86048402     3.16401899     3.38664301     0.59981751    -1.16643717     3.13199716
Ti      3.35704899     2.23164799     5.82993798    -0.10737034     0.67897795    -2.06914694
Ti      4.38155001     2.11323601     1.42090003     0.80703410    -1.35070949    -0.75117712
Ti      0.76185802     3.46505999     7.77309299     0.68284951     0.02760672    -0.66515183
Ti      2.06485000     0.23008801     1.38025800    -0.41078916     1.26879026    -1.54722592
Ti      3.11201103     5.27409798     7.85498999     0.77982282     0.92087051     0.17595402
Ti      0.77205500     0.50694800     5.90976400    -1.34527598     0.21115115    -2.22870812
Ti      4.52706798     4.95692999     3.31571299     0.10010517     0.12396656     3.84020445
O       1.67873899     1.81059801     4.75907802    -0.21764268     0.56916583    -0.32364210
O       3.49615000     3.59036800     4.45780402    -0.23016550    -1.04197645     0.66060998
O       0.30288000     2.72249598     0.04250902    -0.56948696    -0.20361242     0.41903315
O       3.49791502     0.95308400     0.16629199    -1.09491831    -0.11933805     0.08576021
O       1.98612499     4.56804498     9.08741603    -0.95416682    -0.02004741     1.31778085
O       4.24174900     0.61709201     4.88354099    -0.85474942     1.35426430    -0.38171100
O       0.78506202     4.65056800     4.54262600     1.91292229    -1.01851821    -0.14937832
O       0.19451302     3.30296601     2.56202002    -0.07888739    -0.07165744    -0.33235609
O       4.97264300     2.05970100     6.79382900     0.09053320     1.42742275    -0.09631202
O       2.88872802     1.65946498     2.51991000    -0.99456195     0.60717138    -0.86573601
O       2.59357798     3.63101601     6.95967802    -0.61658111     0.03555451    -0.00573613
O       0.16507700     0.45410700     1.90751301     1.14563797     0.87348789    -0.21912338
O       4.94493999     5.09035600     7.34300598     0.50208804    -1.98018340     0.58933692
O       2.18854000     1.13789302     7.02344599     0.86076092    -0.72245120     0.70037082
O       2.84299398     4.52809998     2.43704301    -0.00697643    -0.40349905    -1.28564282
