# total energy = -19959.16463955 eV

CRYSTAL
PRIMVEC
        7.60600008     0.00000000     0.00000000
        0.00000000     7.60600008     0.00000000
       -1.89786986    -1.89786986     4.85670466
PRIMCOORD
24 1
Ti      3.86468697     6.40903797     1.16525301    -0.20357231     1.47634238     0.90311138
Ti      3.74525998     2.66731602     1.24205701     0.04638040    -1.26715966     0.22473970
Ti      0.04975298     6.86737898     1.19573399     0.18153049    -0.54741892    -1.36023569
Ti      0.00349299     2.88417101     1.27521398    -0.51168957     0.28000738    -0.22061565
Ti      5.63011520     2.96079423     3.68007079     0.39624211     0.77971252     2.88266588
Ti      5.76649625    -0.71430076     3.55511580    -1.82226284    -1.35518553     0.08300784
Ti      1.85300722     2.72838324     3.62301183    -0.85590333     0.88453283     0.38011306
Ti      1.87003721    -0.92495680     3.52320180     1.99092959    -0.68087902     1.29150056
O       3.80532001     4.48566701     0.80695900     0.13405763     1.41646085     0.92739983
O       3.79156002     0.74923598     0.55139502    -0.13780630     3.19003752     1.99605354
O       0.26233899     4.64127200     0.81256299    -0.72598184     2.01253046     0.40894491
O       0.05471301     0.97141401     0.68276200     0.00391939     0.64135318     1.36235968
O       5.87172023     4.91146122     4.07127380    -0.65445038    -2.11870575    -0.23057662
O       5.52922322     0.97046922     4.19960881    -0.14789891     0.87476213    -1.52435621
O       1.86821525     4.64330520     4.19777881    -0.20740711    -1.60960399    -2.18788696
O       1.79459521     0.90727424     4.10349482     0.27270236    -0.94817743    -0.22844594
O       3.68799623     2.85934524     3.30479083     0.66600827     0.02691586    -0.41372202
O       3.85067521    -0.99159175     3.30047782    -0.64876387    -0.24080138    -0.90829369
O      -0.06687377     2.84902925     3.13317679     1.09673763     0.07344282     2.65909835
O       0.03128120    -0.76727277     3.17811183    -0.22854622    -0.30675612    -0.65663582
O       5.64569900    -0.56572202     1.60157400     1.23052503    -1.50115174    -0.08132017
O       5.69491201     2.72759402     1.96258999    -1.78701326    -0.53236459    -5.06901815
O       1.99250798     6.75598500     1.55171100    -0.67411805    -0.55010572     0.43347813
O       1.78955802     2.56581999     1.71053101     2.58638136     0.00221192    -0.67136568
