# total energy = -19074.66831972 eV

CRYSTAL
PRIMVEC
        7.60600008     0.00000000     0.00000000
        0.00000000     7.60600008     0.00000000
       -1.89786986    -1.89786986     4.85670466
PRIMCOORD
22 1
Ti      3.69238898     6.71403600     1.20294700     1.12692805     0.26920154     0.42013461
Ti      3.76395099     2.81973299     1.20080298    -0.66003714    -1.33043968     0.82423144
Ti     -0.01029297     6.69955798     1.21493699    -1.68216004     0.34065561     0.21943217
Ti     -0.04872701     3.01419801     1.31583098     0.99217699    -1.09979956    -0.50494248
Ti      5.65766020     3.07822824     3.56282183     0.24286547    -0.53213679     0.16085933
Ti      5.62297623    -0.88841875     3.68383779    -0.03030123    -0.67047685    -0.03881879
Ti      1.92565823     2.95526020     3.73589280    -0.08272785     0.11977540    -1.37305624
Ti      1.80058523    -0.93676978     3.60706581    -0.86451370    -2.10522391     0.28273506
O       3.56384098     4.62839500     0.72655200     0.69000670     0.76847191     0.62352669
O       4.07740702     0.85640898     1.03760498    -1.61041081     1.62399703    -0.93178176
O       0.00276802     4.78655999     0.66413798    -0.00609737     0.17743010     0.42373261
O      -0.06810898     1.01214198     0.75184101    -0.05067363     0.33329454     0.98572507
O       5.37718621     4.84430424     3.88969081    -0.36567528     0.18663156     1.54931931
O      -0.24225978    -1.15294377     3.36129579     2.88536734     0.77284073    -1.16413527
O       2.03050825     4.87919824     4.11394983     0.40168694    -2.36739296    -0.16353533
O       1.78897222     0.72578824     3.99730583     0.46795869     3.84285706     1.46208895
O       3.81103020     2.71304921     3.19763180    -0.33225839     0.13470889     0.34716179
O       0.12407820     3.17386322     3.27113383    -2.89701573    -0.33123894     0.76716450
O       5.54361198     6.66924702     1.83384598    -0.20747653    -0.31811628    -1.44892181
O       5.70496500     2.77884198     1.64045202    -0.23238102     0.78431814    -0.08133302
O       1.83848999     6.73063201     1.70844902    -0.04895099    -0.03459446    -1.05083005
O       1.78179399     2.85279498     1.75491999     2.26368979    -0.56476256    -1.30875679
