# total energy = -19961.67296359 eV

CRYSTAL
PRIMVEC
        7.60600008     0.00000000     0.00000000
        0.00000000     7.60600008     0.00000000
       -1.89786986    -1.89786986     4.85670466
PRIMCOORD
24 1
Ti      3.73306800     6.71345603     1.27248502     1.85607055    -0.45606348    -0.85629003
Ti      3.82758202     2.89105301     1.19643801    -0.33197736     0.64107267    -0.20119095
Ti      0.06631602     6.55391797     1.15808399    -1.53411509     0.67061697     0.83270015
Ti     -0.01063001     2.80896301     1.18734399     0.76445662    -0.67993543     0.13114739
Ti      5.71181922     2.77862523     3.60809983     0.04478246    -0.53428675    -0.06943524
Ti      5.65461124    -1.04065479     3.60852280     0.90043717     0.29573020     0.10698390
Ti      1.91382821     2.95323425     3.59768980     0.05060653    -0.41990681     0.44926419
Ti      1.87802821    -0.89268376     3.63407682    -0.77110909     0.40032142     1.16845369
O       3.74940100     4.83433502     0.82314098     0.05870653    -0.17327365    -0.20051270
O       3.77707401     1.06045502     0.93772701     0.22341018    -1.45111599    -0.88432946
O       0.04075199     4.66084298     0.79187200     0.39556463     0.86357962     0.11577605
O       0.02865299     0.82847302     0.72503602     0.09047947    -0.05894076     0.31106657
O       5.72831325     4.61597124     4.04464783     0.29438062     1.05350554     0.03459343
O       5.58025120     0.89060722     4.14532983     0.38716457     0.14620249    -1.35902624
O       1.78442220     4.80193021     4.07849480     0.19234738     0.83886900     0.29740527
O       1.91281923     0.99387325     4.04399382     0.13007216     0.00315037     0.61980450
O       3.82962824     2.99618524     3.34359682     0.16723207    -0.40914674    -1.08452128
O       3.79325720    -0.86841077     3.28001681    -0.13237484    -0.50059449    -0.26187955
O       0.05558425     2.80301321     3.16944480    -0.68057974    -0.08062083     0.47926641
O      -0.03838276    -0.87546476     3.21821081     0.55501987    -0.24988432    -0.14064171
O       5.70889297     6.52067802     1.63099900    -0.12862848     0.31579818    -0.00513115
O       5.78028899     2.78099399     1.58032700    -1.31564683     0.11490084     0.81621397
O       1.93533202     6.74262502     1.73509701    -1.08518771    -0.40189648    -0.70542329
O       1.96177400     2.86800999     1.61164202    -0.13111140     0.07191815     0.40570583
