# total energy = -19897.80244746 eV

CRYSTAL
PRIMVEC
        8.59304291     0.00000000     0.00000000
        0.00002705     3.46901934     0.00000000
        0.00000000     0.00000000    13.29988796
PRIMCOORD
24 1
Ti      3.11458091     2.05573760     4.93416359     0.07413702    -0.04988071     2.32775117
Ti      5.47848931     1.41328161     8.36572449    -0.07413702     0.04988071    -2.32775117
Ti      7.41095570     1.41328280     1.71572731     0.06885725     0.05005965    -2.32834638
Ti      1.18211451     2.05573660    11.58416090    -0.06885725    -0.05005965     2.32834638
Ti      3.11456750     0.32122799     1.71578063     0.07413702    -0.04988071    -2.32775117
Ti      5.47850271     3.14779134    11.58410758    -0.07413702     0.04988071     2.32775117
Ti      1.18210110     0.32122675     8.36567117    -0.06885725    -0.05005965    -2.32834638
Ti      7.41096911     3.14779258     4.93421691     0.06885725     0.05005965     2.32834638
O       2.71976198     1.22150066     6.78683101     2.08059633     0.57433015    -1.81247388
O       5.87330829     2.24751856     6.51305708    -2.08059633    -0.57433015     1.81247388
O       1.57682896     1.22151463     0.13692980    -2.08066780     0.57424659    -1.81339073
O       7.01624137     2.24750458    13.16295792     2.08066780    -0.57424659     1.81339073
O       5.87329489     0.51300889     0.13688666    -2.08059633    -0.57433015    -1.81247388
O       2.71977532     2.95601032    13.16300106     2.08059633     0.57433015     1.81247388
O       7.01622796     0.51299492     6.78687421     2.08066780    -0.57424659    -1.81339073
O       1.57684219     2.95602436     6.51301387    -2.08066780     0.57424659     1.81339073
O       0.31222160     2.11005420     3.59263153    -1.52087339     0.44855534     0.38135593
O       8.28084861     1.35896502     9.70725656     1.52087339    -0.44855534    -0.38135593
O       4.60875438     1.35893277     3.05735475    -1.52059365    -0.44845224    -0.38133588
O       3.98431590     2.11008650    10.24253309     1.52059365     0.44845224     0.38133588
O       0.31220820     0.37554453     3.05731227    -1.52087339     0.44855534    -0.38135593
O       8.28086201     3.09347468    10.24257557     1.52087339    -0.44855534     0.38135593
O       3.98430249     0.37557677     9.70729891     1.52059365     0.44845224    -0.38133588
O       4.60876778     3.09344244     3.59258911    -1.52059365    -0.44845224     0.38133588
