# total energy = -19961.39684003 eV

CRYSTAL
PRIMVEC
        7.60600008     0.00000000     0.00000000
        0.00000000     7.60600008     0.00000000
       -1.89786986    -1.89786986     4.85670466
PRIMCOORD
24 1
Ti      3.79101000     6.70644803     1.29882503    -0.57242831     0.15418269     0.18065735
Ti      3.77830498     2.94095300     1.17594800     0.18865811    -0.29090629     1.30034028
Ti     -0.00759798     6.54292897     1.19399300     0.49267497    -1.18965682    -0.69555025
Ti      0.06383502     2.70464202     1.19856102    -0.43762995     1.70826214    -0.49512215
Ti      5.73151721     2.84182323     3.52881283    -0.52447901    -1.14045103     0.74653371
Ti      5.71485220    -1.04276277     3.61364079     0.03893449     0.82631995     0.06621082
Ti      1.91931721     2.95647821     3.75160079     0.09862524     0.31257298    -1.70030560
Ti      1.84166325    -0.89275277     3.72248583     0.09477115    -0.30329233    -0.88107856
O       3.77470800     4.80190201     0.84323802     0.02459004     0.15448582    -0.13633948
O       3.74421300     1.03868202     0.84879899    -0.09508612    -0.80264111    -0.07427483
O       0.06495000     4.64885701     0.66759298    -0.26960675    -0.04341695     0.26749047
O       0.20147900     0.85922801     0.71089402    -0.48383269     0.48566820     0.34898445
O       5.75115323     4.65079423     4.09855279    -0.40952521     1.62823807    -0.64412354
O       5.80735222     0.92073524     3.80510580    -0.32535883    -0.83830464     1.03621949
O       1.74586222     4.81302420     4.18978480     0.29754437     0.44920994    -0.16095703
O       1.81997122     1.05805721     4.05882380    -0.16997672    -0.67923171    -0.07158340
O       3.77083623     3.05867525     3.21813683    -0.36802013    -0.37403574    -0.13662127
O       3.78387023    -0.88547076     3.29645681    -0.40634038    -0.16332605    -0.06234413
O      -0.08526580     3.03728421     3.13126879     1.71660512    -0.59134520    -0.13273711
O      -0.02895076    -1.00477679     3.09844779     0.23842620     0.21910641     1.55985570
O       5.67367099     6.43602099     1.61797902    -0.31482964     0.56111313    -0.19973417
O       5.71420898     2.78207801     1.48114299    -0.58338044     0.03354391     0.23265613
O       1.85600300     6.51229803     1.73030901     1.12359975     0.35702660    -0.15510931
O       1.85962898     2.95112802     1.70146398     0.64606550    -0.47312172    -0.19306781
