# total energy = -19073.57874494 eV

CRYSTAL
PRIMVEC
        7.60600008     0.00000000     0.00000000
        0.00000000     7.60600008     0.00000000
       -1.89786986    -1.89786986     4.85670466
PRIMCOORD
22 1
Ti      3.85821403     6.76899101     1.04200298    -0.50201194    -1.06168705     1.06404218
Ti      3.71791199     2.84799000     1.23166201     0.93792695     1.98415473     1.08550036
Ti      0.02366602     6.73512901     0.95467899     1.23304754    -2.67742698     1.32508638
Ti     -0.09956200     2.97856797     1.33634502     0.01543460    -0.29112689    -1.18017484
Ti      5.54162624     2.82978423     3.67151283     1.88230918    -0.26326229     0.52277154
Ti     -1.33299977    -0.91962777     3.71842879    -0.23347271    -0.43754998     0.17049583
Ti      1.81886820     2.53307921     3.64056184    -1.10971605     2.21601098     0.84592385
Ti      1.64799824    -0.99013678     3.68726183    -0.66647518     1.22942974    -1.29788616
O       3.92999200     4.77405998     0.66625400    -0.55988209    -0.64179130     0.71331041
O       4.06206702     1.12703901     0.64064902    -0.67237612    -1.31510818     1.74269745
O       7.25389200     4.77151501     0.83242000     0.64859855     0.39586313    -0.64352191
O       7.25928701     0.74053398     0.56743698    -0.29245229     1.84433654     1.34047290
O       6.08701621     4.70948321     3.81355379    -0.28228615    -0.45130668     1.23614958
O       5.67621623     0.74423721     4.20861583    -0.00887648     2.52590488     0.66583755
O       1.82149821     4.84263225     4.06168284     0.07436430    -0.69999415    -0.03131553
O       2.31634821     0.89032220     3.72278381    -0.38901217    -1.49953863     0.84574464
O       3.77058624     2.98076623     3.21776583     0.13326110    -0.24168507    -0.75420640
O      -0.19969678     2.44958525     3.45898683     2.33647132     0.38173851    -1.26535912
O       5.47364400     6.75757999     2.13625501    -0.38528381    -0.03612581    -2.61462442
O       5.75645299     2.88400098     1.57700800    -2.36749632    -0.48013904     1.07442096
O       1.98880802     6.72185698     1.88585802     0.48645161    -0.09927933    -2.37231483
O       1.82667198     3.11536098     1.88262601    -0.27852385    -0.38141738    -2.47305043
