# total energy = -19520.01315393 eV

CRYSTAL
PRIMVEC
        5.17575250     0.00001323     0.00000000
        0.00001429     5.50856584     0.00000000
        0.00000000     0.00000000     9.26345890
PRIMCOORD
23 1
Ti      1.84017766     3.35344070     3.41542098     0.01649415     0.01075261     0.02424345
Ti      3.36505374     2.16530605     5.77065251     0.00311644    -0.03016676    -0.00992575
Ti      4.58583329     1.94578939     1.42479279    -0.00441201     0.00713841     0.01147227
Ti      0.84140220     3.32540666     7.92938657     0.01893515     0.01487461    -0.00594902
Ti      2.04201226     0.47604919     1.26192185    -0.02797541    -0.02026673     0.02193178
Ti      3.16003222     5.17028065     7.91188534     0.00086955     0.01992966    -0.01534743
Ti      0.60053130     0.68957088     5.67677111    -0.00639176    -0.01056158     0.00263770
Ti      4.57734824     4.82674234     3.57514348     0.00320205     0.00745774     0.00604158
O       1.52506600     1.94935778     4.67293900    -0.01234079    -0.00548494    -0.00960924
O       3.57960415     3.50913502     4.50030630     0.00522963    -0.00447604     0.01253747
O       0.72011739     2.14014817     0.08666302     0.00010850     0.03667937    -0.01174789
O       3.55547106     0.83746299     0.09534729     0.01144681     0.00184400    -0.00592254
O       1.67993367     4.72463818     9.13443096    -0.01123984    -0.01693972    -0.01430562
O       4.05008376     0.75879784     4.70450494     0.02643841     0.02217809     0.00605675
O       1.04713510     4.63786360     4.62059392    -0.01156997    -0.00692578    -0.02341273
O       0.18168825     3.37407633     2.39015744     0.00252380    -0.02876577     0.00608915
O       4.93384459     2.15898048     6.83381285     0.00572508     0.01596244    -0.01521708
O       2.78781413     2.12414541     2.09165899     0.00613543    -0.01394361     0.01325430
O       2.49148028     3.41761212     7.14481681    -0.00952208     0.00001440     0.01368290
O       0.28797189     0.56109858     2.21142449    -0.02352586    -0.01715004    -0.00283464
O       4.90063850     4.79781410     7.31260179     0.01685513     0.00521189     0.00020440
O       2.31090040     0.74631658     6.77416443    -0.00255619    -0.00459533    -0.00964807
O       2.81904780     4.84402211     2.45402614    -0.00754670     0.01723385     0.00576776
