# total energy = -19944.97031996 eV

CRYSTAL
PRIMVEC
        6.02457602     0.00000000     0.00000000
        0.00002371     4.27464709     0.00000000
        0.00000000     0.00000000     9.35995346
PRIMCOORD
24 1
Ti      2.18363319     2.53315189     3.47247597    -0.13509815     1.73803887    -2.64221031
Ti      3.84096664     1.74149520     5.88747759     0.13509815    -1.73803887     2.64221031
Ti      5.19581734     1.74149669     1.20746339    -0.13256176    -1.73805353     2.64388719
Ti      0.82878249     2.53315061     8.15249022     0.13256176     1.73805353    -2.64388719
Ti      2.18362133     0.39582845     1.20750091    -0.13509815     1.73803887     2.64221031
Ti      3.84097850     3.87881879     8.15245270     0.13509815    -1.73803887    -2.64221031
Ti      0.82877063     0.39582686     5.88744002     0.13256176     1.73805353     2.64388719
Ti      5.19582920     3.87882039     3.47251350    -0.13256176    -1.73805353    -2.64388719
O       1.90682475     1.50517593     4.77631262     1.52635473    -1.51832980     2.16739269
O       4.11777509     2.76947121     4.58364094    -1.52635473     1.51832980    -2.16739269
O       1.10551531     1.50519315     0.09636597    -1.52555948    -1.51913507     2.16764646
O       4.91908462     2.76945399     9.26358728     1.52555948     1.51913507    -2.16764646
O       4.11776328     0.63214762     0.09633558    -1.52635473     1.51832980     2.16739269
O       1.90683655     3.64249947     9.26361767     1.52635473    -1.51832980    -2.16739269
O       4.91907277     0.63213044     4.77634296     1.52555948     1.51913507     2.16764646
O       1.10552701     3.64251675     4.58361055    -1.52555948    -1.51913507    -2.16764646
O       0.21890132     2.60008267     2.52835696     0.95675232    -0.30434108     1.35281471
O       5.80569851     1.67456446     6.83159661    -0.95675232     0.30434108    -1.35281471
O       3.23119607     1.67452461     2.15164960     0.95736476     0.30474911    -1.35294507
O       2.79340376     2.60012253     7.20830381    -0.95736476    -0.30474911     1.35294507
O       0.21888947     0.46275908     2.15161967     0.95675232    -0.30434108    -1.35281471
O       5.80571036     3.81188801     7.20833369    -0.95675232     0.30434108     1.35281471
O       2.79339196     0.46279894     6.83162643    -0.95736476    -0.30474911    -1.35294507
O       3.23120787     3.81184820     2.52832708     0.95736476     0.30474911     1.35294507
