# total energy = -19961.14674690 eV

CRYSTAL
PRIMVEC
        7.60600008     0.00000000     0.00000000
        0.00000000     7.60600008     0.00000000
       -1.89786986    -1.89786986     4.85670466
PRIMCOORD
24 1
Ti      3.74229801     6.63931401     1.28863302    -0.36874338    -0.30691655    -1.53491985
Ti      3.78641102     2.88912998     1.20431302    -1.03354220     0.22533439    -0.39118346
Ti     -0.04180299     6.64486201     1.24996799     0.60665664     0.62002304    -0.63136855
Ti     -0.04194799     2.90164402     1.19871099     1.03045662    -0.86312531     0.35146710
Ti      5.69765822     2.87238221     3.62547679     1.47908652     0.00795114     0.27721336
Ti      5.74397420    -0.96277779     3.63407280     0.93358770    -0.00061732     0.45128996
Ti      1.94270922     2.77906021     3.59087384    -1.69693489     1.09104700     0.64761048
Ti      1.98307724    -1.02350977     3.67552579    -1.55691821    -0.96627595     0.00834735
O       3.63907501     4.77049301     0.77070502     0.80900125    -0.15764751     0.05690599
O       3.62160898     0.95278898     0.84266101     0.78475266     0.07584989    -0.05886517
O       0.06272502     4.75719801     0.71202302    -0.74502138     0.48296982    -0.03480812
O       0.06437399     0.98158501     0.74852598    -0.51814896     0.69089193     0.16404801
O       5.96706723     4.85105125     4.06098580    -0.79146632    -1.92996459    -0.07796282
O       5.96019523     0.99258422     3.96355983    -1.44093982    -0.11263853     0.38613176
O       1.68101223     4.73617121     4.05449079     0.93840055     0.47023977     0.60966946
O       1.77704420     0.92150921     4.09411780     0.95150881    -0.24734382    -0.23212108
O       3.79973322     2.97036324     3.26906083     0.54745106    -0.49822496    -0.21669703
O       3.82678423     6.32442322     3.26367783    -0.23416819     1.02870081    -0.20841807
O       0.05027724     2.74654121     3.18257480    -1.66217870     0.46406964    -0.71117948
O      -0.02257777    -1.07638976     3.13167679     0.74803652     0.62560928     0.23926669
O       5.72866600     6.70662202     1.55982302    -1.18909066     0.08085762     0.08923248
O       5.63921298     2.93392002     1.54929599     0.54052013    -0.04329019     0.33010843
O       1.89466702     6.70132802     1.65077499     0.53932688     0.01794219     0.92154568
O       1.82523600     3.06713902     1.69278399     1.32836737    -0.75544155    -0.43531287
