# total energy = -19960.62527069 eV

CRYSTAL
PRIMVEC
        5.93400000     0.00000000     0.00000000
        0.00000000     9.29699974     0.00000000
        0.00000000     0.00000000     4.64899994
PRIMCOORD
24 1
Ti      4.44739500     7.07426802     2.39693301    -0.66165462    -0.82765975    -0.70751232
Ti      4.42618500     2.25625399     2.38961502     0.46390894     0.32919389     0.36524719
Ti      1.47851499     6.91290499     2.35112500     0.81043413     0.77406046     0.58017556
Ti      1.49264498     2.38277302     2.14568997    -1.13542786    -0.31018571     0.40808667
Ti      2.91779498     4.62882702     0.02356998     2.78456695     0.51338959    -0.32835648
Ti      2.96905501     9.27652101     4.60628201    -0.24282407    -0.04764667    -0.15734694
Ti      0.07058801     4.70461901     4.60916401    -2.13133887    -0.62824826     0.35158512
Ti      5.92830299     0.03171402     0.05179402    -0.13532312     0.02386910    -0.16258403
O       4.33323099     5.59768902     0.94522498     0.65242101    -0.45879476    -0.14117727
O       4.45064002     0.97615697     0.78947800     0.27740105    -0.15702967     0.47840431
O       1.48483601     5.46133698     1.02105100    -0.21681967     0.30267783    -0.24929477
O       1.44749399     0.89066902     0.83054999     0.82221030     0.87198456     0.44987509
O       4.53903998     8.44419198     3.82176202    -0.80207290    -1.38306658    -0.98122949
O       4.39169201     3.75895900     3.65134499     0.30996177    -0.06101899     0.70787638
O       1.57680998     8.22740102     3.84915298    -0.59528954     0.66246014    -0.05569783
O       1.48920099     3.79624298     3.68721701    -0.46534953    -0.49236001    -0.03826394
O       2.98414302     6.07317198     3.30819698    -0.20829234     0.07596224    -0.36553696
O       2.93996502     1.21131303     3.14593600    -0.11846259     1.25858323    -0.27239537
O       0.02793998     6.09485502     3.33533102    -0.13314540     0.29326965    -0.48291069
O       5.87479100     1.39274600     3.08066701     1.26663542    -0.53656166     0.84359340
O       2.99602701     7.95575000     1.63404902    -0.20604674     0.06974608    -0.97931633
O       3.01923302     3.11105200     1.37095400    -1.01249309     0.62941246    -0.40650879
O       5.92640398     7.87690899     1.37253799     0.23836063    -0.47316338     1.15464275
O       5.92797701     3.27067900     1.38739898     0.43864065    -0.42887379    -0.01135400
