# total energy = -19959.12001572 eV

CRYSTAL
PRIMVEC
        7.60600008     0.00000000     0.00000000
        0.00000000     7.60600008     0.00000000
       -1.89786986    -1.89786986     4.85670466
PRIMCOORD
24 1
Ti      3.89022099     6.65202500     1.19152402     0.82454820     0.62739157     1.98398786
Ti      3.59925902     2.82956002     1.23670999     3.49967482    -0.58173467    -2.66345663
Ti      0.19861901     6.74825499     1.22287301    -1.37139197    -0.16478875     0.38439626
Ti     -0.09234302     2.78527000     1.24197001    -1.70971482     0.42140782     0.20999596
Ti      5.67776624     2.87381025     3.69788380     1.52684504    -0.69404127    -0.55804221
Ti      5.69353424    -0.94729676     3.59234379     1.00857601     0.78576027     0.54383120
Ti      2.02246825     2.83543622     3.68696983    -2.36322263    -1.76224787    -0.35788304
Ti      1.93398023    -1.08857375     3.63780482    -0.21459103     2.30941508    -0.12476540
O       3.96797301     4.73214401     0.72733598    -0.86597255     1.05678678     0.11714747
O       4.00694898     0.90385998     0.77912201    -0.42317391    -0.96969346    -1.25531742
O      -0.12069099     4.73572501     0.98829699     0.97805443     0.85979033    -1.17743687
O      -0.24233302     0.87514101     0.73420301     0.53800816     1.40867709     0.25405568
O       5.80231821     4.85049821     4.06411880     0.42352050    -2.27734827    -0.09255152
O       5.69800124     0.97661524     4.14205581    -0.75272338     0.43876097     0.04104716
O       1.45888723     4.69041722     3.62125480     1.42805088     0.58381675     1.69033975
O       1.92650121     0.85349221     4.06563182    -0.20223559     1.27192598     0.58935697
O       3.75145125     2.94548720     3.16046281     0.41612395     0.41057807     1.13580118
O       3.85686124    -1.01396579     3.18656580    -1.64204516    -0.61836288    -0.53324494
O      -0.12489477     2.66877920     3.17165380     0.81904270     0.29748240     0.90568685
O      -0.12921577    -0.52540379     3.07180281     2.71390581    -1.40115276     1.10522818
O       5.75385198     6.69266502     1.68705602    -2.19036576    -0.60999368    -1.89392209
O       5.62472998     2.80561899     1.66913400     0.01265935     0.12345285     0.36344279
O       2.04141300    -0.49643398     1.73058900    -0.77359072    -1.71490202    -0.75316536
O       1.91081899     2.58512199     1.62626800    -1.67998231     0.19901966     0.08546761
