# total energy = -19948.30007686 eV

CRYSTAL
PRIMVEC
        5.12305259     0.00000000     0.00000000
        1.85168495     5.12842811     0.00000000
        0.00000000     0.00000000     9.31721221
PRIMCOORD
24 1
Ti      2.95416702     3.03910167     3.45661929     2.43984565    -2.93247280     1.15321476
Ti      4.02057070     2.08932630     5.86059302    -2.43984565     2.93247280    -1.15321476
Ti      5.17268091     2.08932805     1.20194967    -4.94377479     0.30170158     1.57804729
Ti      1.80205684     3.03910007     8.11526275     4.94377479    -0.30170158    -1.57804729
Ti      2.02832468     0.47488775     1.20198702     2.43984565    -2.93247280    -1.15321476
Ti      4.94641307     4.65354032     8.11522540    -2.43984565     2.93247280     1.15321476
Ti      0.87621439     0.47488586     5.86055567     4.94377479    -0.30170158     1.57804729
Ti      6.09852336     4.65354226     3.45665665    -4.94377479     0.30170158    -1.57804729
O       2.27348829     1.80580666     4.75450208    -0.11647333     0.79821418    -1.03190184
O       4.70124944     3.32262131     4.56271024     0.11647333    -0.79821418     1.03190184
O       1.59209501     1.80582735     0.09592595     0.97494211    -0.70568478    -0.05102767
O       5.38264277     3.32260067     9.22128611    -0.97494211     0.70568478     0.05102767
O       3.77540708     0.75840729     0.09589571     0.11647333    -0.79821418    -1.03190184
O       3.19933065     4.37002068     9.22131634    -0.11647333     0.79821418     1.03190184
O       4.45680040     0.75838659     4.75453231    -0.97494211     0.70568478    -0.05102767
O       2.51793728     4.37004138     4.56268000     0.97494211    -0.70568478     0.05102767
O       1.31243207     3.11940061     2.51681147     0.04222961    -0.67424017    -0.77090289
O       5.66230566     2.00902736     6.80040085    -0.04222961     0.67424017     0.77090289
O       3.47303684     2.00897959     2.14182431     1.72325734    -1.03852115    -1.78140414
O       3.50170088     3.11944838     7.17538785    -1.72325734     1.03852115     1.78140414
O       0.38658970     0.55518659     2.14179454     0.04222961    -0.67424017     0.77090289
O       6.58814802     4.57324138     7.17541762    -0.04222961     0.67424017    -0.77090289
O       2.57585852     0.55523436     6.80043052    -1.72325734     1.03852115    -1.78140414
O       4.39887921     4.57319361     2.51678175     1.72325734    -1.03852115     1.78140414
