# total energy = -19960.52018164 eV

CRYSTAL
PRIMVEC
        5.93400000     0.00000000     0.00000000
        0.00000000     9.29699974     0.00000000
        0.00000000     0.00000000     4.64899994
PRIMCOORD
24 1
Ti      4.49990500     6.95635299     2.40984399    -0.82826576     0.46278640    -1.08030442
Ti      4.43493600     2.33016799     2.22786400    -0.07962298    -0.61212667     0.97129114
Ti      1.47825300     6.96394202     2.34906898     0.74747910     0.57675265    -0.65116400
Ti      1.49178797     2.41488800     2.30093899     0.24985938    -1.60407998     0.25125601
Ti      2.98524497     4.68353500     4.63294598     0.50914752    -1.02516709    -0.08482998
Ti      2.97420200     9.28589501     0.02836602    -0.50502347     1.76320407     0.51424036
Ti      0.01186198     4.62880300     0.02859700    -0.22182946    -1.16904787    -0.07864082
Ti      0.00043202     0.01253102     4.59579001     1.14776530     1.74395781     0.74649848
O       4.41890198     5.58664001     0.94343398     0.15694045    -0.80267968    -0.57359662
O       4.47278900     0.92090701     0.92000799    -0.01899763    -0.39087339    -0.33215297
O       1.47673701     5.44020598     0.97071502    -0.13841205     0.64098988    -0.23392214
O       1.35779701     0.92313802     0.96367998     0.51868503    -1.02747131    -1.06238176
O       4.44765700     8.49121800     3.83416498    -0.28651587    -1.76904664    -1.52663652
O       4.41081901     3.73298799     3.68597599     0.17493741     0.97582940     0.94045512
O       1.60083299     8.37017098     3.83486000    -1.30795280    -0.80503455    -0.92143306
O       1.43606201     3.67533698     3.68951301    -0.15310565     2.00286079     1.45981584
O       2.97097899     6.01233898     3.23062103    -0.21549478     0.23267027     0.19963646
O       2.86220698     1.41904399     3.20849999     0.92102477    -0.47467698     0.61270182
O       0.01831398     6.05211199     3.19401403     0.26514511    -0.16734468     1.05586556
O       5.89325002     1.53256902     3.13765099    -0.24160485    -2.04417972     1.71902556
O       3.02854400     7.85740198     1.55273602    -0.65258325     0.39007609    -0.65225543
O       2.92633802     3.12534502     1.30335902     0.45829288     1.12198844    -0.41717578
O       5.91075700     7.80026402     1.32897802     0.43685759    -0.16190525     1.15706062
O       0.00366699     3.17481198     1.43491100    -0.93672625     2.14251803    -2.01335373
