# total energy = -39040.39498077 eV

CRYSTAL
PRIMVEC
        7.60629642    -0.00000847    -0.00005503
       -0.00000847     7.60629642    -0.00005503
       -3.80314186    -3.80314186     9.70738094
PRIMCOORD
46 1
Ti      1.90152305     4.71747078     6.06051820    -0.00000591    -0.01265626     0.00018615
Ti      3.83072229     6.66217704     1.19083999    -0.00017484     0.00571017     0.00570425
Ti      1.90153027     0.96144240     5.91899447     0.00000746    -0.03755740    -0.01078013
Ti      3.79873986     2.84326982     1.24712469    -0.01638410     0.00564872    -0.00590146
Ti     -1.90166381     4.79922945     6.06799239     0.00002185    -0.00508950    -0.01166356
Ti     -0.02770920     6.66210603     1.19088411     0.00021032     0.00577804     0.00580838
Ti     -1.90167497     0.95986588     6.13340008     0.00021726    -0.00326684    -0.00433180
Ti      0.00416969     2.84324370     1.24717281     0.01624912     0.00551836    -0.00585209
Ti      3.88726606     0.94776725     8.54465709     0.00973471     0.00356381     0.02070844
Ti      5.70477256     2.83003191     3.66873074     0.00014475    -0.02281572    -0.02848629
Ti      3.78444264    -2.83471327     8.48390906    -0.01262515    -0.00769840     0.01113417
Ti      5.70475778    -0.94294174     3.64552454     0.00000951     0.02156925    -0.01091819
Ti     -0.08407545     0.94785402     8.54467060    -0.00983679     0.00359029     0.02059094
Ti      1.90161670     2.90756095     3.68912538     0.00007045     0.00441279    -0.00366228
Ti      0.01896434    -2.83462455     8.48387178     0.01262695    -0.00774956     0.01132726
Ti      1.90158056    -0.96995532     3.49226572     0.00007199    -0.03418129     0.00145370
O       1.90162311     2.84756608     5.64484652    -0.00003497     0.00307453    -0.00067260
O       3.85363962     4.74902537     0.80542375     0.00203066     0.01170058     0.00175144
O       3.76865479     0.95494413     0.76066257    -0.00780999    -0.00590505     0.00236747
O      -1.90153328     2.82372040     5.72934230    -0.00003060     0.00590737    -0.01414082
O      -0.05060222     4.74900291     0.80545109    -0.00208131     0.01165559     0.00187639
O      -1.90153537    -0.93685379     5.67055150    -0.00001286     0.01409119    -0.00471926
O       0.03449996     0.95491719     0.76071807     0.00771228    -0.00591894     0.00231682
O       3.65249673     2.82829095     8.85958182    -0.00157943    -0.00462824    -0.00225846
O       5.70470476     4.75064801     4.09615139    -0.00004345     0.00049648    -0.01283984
O       3.70171735    -0.92872778     8.91414670    -0.00666173     0.00583923     0.00053402
O       5.70469307     0.95042559     4.10019810     0.00001234     0.00575593     0.01936967
O       0.15078096     2.82832571     8.85959816     0.00155295    -0.00474729    -0.00226669
O       1.90148041     4.83318339     4.07068097     0.00002365    -0.00108886     0.01879477
O       0.10158559    -0.92869035     8.91417897     0.00666790     0.00598784     0.00046074
O       1.90152239     0.87462734     4.03291911     0.00002443     0.00485990     0.00759298
O       3.79124802     2.85485734     3.25789317    -0.02189784    -0.00009282    -0.00989515
O       1.90164469    -2.80888804     8.06045747    -0.00004037     0.01088528    -0.00095439
O       3.81783656    -0.95223602     3.18044979    -0.00811749    -0.00744515     0.00784058
O      -1.90154919     1.00252931     8.11317914    -0.00008202     0.01287635     0.01043071
O       0.01184232     2.85480082     3.25792247     0.02183947    -0.00000540    -0.00993526
O      -1.90154237    -2.87877176     8.07958090     0.00003805     0.00610483     0.00890553
O      -0.01472079    -0.95223622     3.18048932     0.00819411    -0.00747266     0.00789869
O       3.78459163     4.86516559     6.46175779    -0.00531344    -0.00329847     0.01058344
O       5.70469672     6.70078767     1.62909530    -0.00002288     0.00515198    -0.00201112
O       3.66553096     0.77747969     6.54579456    -0.01066185     0.00845405    -0.00232608
O       5.70468573     2.80595268     1.69370935    -0.00003060    -0.00044352    -0.02368964
O       0.01858976     4.86516333     6.46181555     0.00530213    -0.00331364     0.01056621
O       1.90155501     6.62894699     1.52739190     0.00007456    -0.00525045    -0.00416570
O       0.13767188     0.77745060     6.54588763     0.01061326     0.00846767    -0.00228725
O       1.90153483     2.88426698     1.62956255    -0.00000360     0.00352627    -0.01444498
