# total energy = -19891.68243699 eV

CRYSTAL
PRIMVEC
        8.53999163     0.00000000     0.00000000
        0.00002655     3.02971121     0.00000000
        0.00000000     0.00000000    13.58640639
PRIMCOORD
24 1
Ti      3.09535175     1.79540395     5.04045998    -0.03691231     0.25401069     1.89193745
Ti      5.44466608     1.23430696     8.54594681     0.03691231    -0.25401069    -1.89193745
Ti      7.36520190     1.23430794     1.75268913    -0.03823823    -0.25450794    -1.89425479
Ti      1.17481600     1.79540310    11.83371778     0.03823823     0.25450794     1.89425479
Ti      3.09533882     0.28054841     1.75274362    -0.03680664     0.25119404    -1.89364441
Ti      5.44467907     2.74916263    11.83366330     0.03680664    -0.25119404     1.89364441
Ti      1.17480301     0.28054737     8.54589233     0.03850614     0.25084257    -1.89213851
Ti      7.36521488     2.74916366     5.04051447    -0.03850614    -0.25084257     1.89213851
O       2.70297049     1.06681273     6.93303935     2.85745055     0.21947356    -1.02116105
O       5.83704740     1.96289825     6.65336745    -2.85745055    -0.21947356     1.02116105
O       1.56709369     1.06682503     0.13987969    -2.85631747     0.21921465    -1.01952326
O       6.97292426     1.96288595    13.44652670     2.85631747    -0.21921465     1.01952326
O       5.83703442     0.44804259     0.13983557    -2.85743821    -0.21845746    -1.01988784
O       2.70298347     2.58166833    13.44657082     2.85743821     0.21845746     1.01988784
O       6.97291127     0.44803034     6.93308341     2.85599454    -0.21847726    -1.02109960
O       1.56710650     2.58168063     6.65332339    -2.85599454     0.21847726     1.02109960
O       0.31029359     1.84284210     3.67002738    -0.92372340     0.39831674     2.06111430
O       8.22972430     1.18686882     9.91637936     0.92372340    -0.39831674    -2.06111430
O       4.58030070     1.18684074     3.12321918    -0.92455258    -0.39826454    -2.05624154
O       3.95971719     1.84287024    10.46318739     0.92455258     0.39826454     2.05624154
O       0.31028060     0.32798649     3.12317581    -0.92313668     0.39953827    -2.05537097
O       8.22973729     2.70172448    10.46323075     0.92313668    -0.39953827     2.05537097
O       3.95970427     0.32801458     9.91642267     0.92458755     0.39935752    -2.06165758
O       4.58031362     2.70169634     3.66998402    -0.92458755    -0.39935752     2.06165758
