# total energy = -19914.50911226 eV

CRYSTAL
PRIMVEC
        7.93960422     0.00000000     0.00000000
        0.00002794     4.55007538     0.00000000
        0.00000000     0.00000000    12.01195757
PRIMCOORD
24 1
Ti      2.87774131     2.69637060     4.45635075     0.41228709    -0.31375543     2.42169057
Ti      5.06189103     1.85370516     7.55560732    -0.41228709     0.31375543    -2.42169057
Ti      6.84740736     1.85370676     1.54958033     0.41200118     0.31447920    -2.42274369
Ti      1.09222499     2.69636912    10.46237787    -0.41200118    -0.31447920     2.42274369
Ti      2.87772747     0.42133297     1.54962847     0.41228709    -0.31375543    -2.42169057
Ti      5.06190487     4.12874291    10.46232972    -0.41228709     0.31375543     2.42169057
Ti      1.09221114     0.42133118     7.55555918    -0.41200118    -0.31447920    -2.42274369
Ti      6.84742120     4.12874464     4.45639889     0.41200118     0.31447920     2.42274369
O       2.51294478     1.60215896     6.12961020     1.05992893     1.22777806    -1.88259534
O       5.42668756     2.94791673     5.88234787    -1.05992893    -1.22777806     1.88259534
O       1.45692356     1.60217730     0.12366982    -1.05947693     1.22778320    -1.88303732
O       6.48270885     2.94789846    11.88828788     1.05947693    -1.22778320     1.88303732
O       5.42667372     0.67287904     0.12363085    -1.05992893    -1.22777806    -1.88259534
O       2.51295862     3.87719672    11.88832685     1.05992893     1.22777806     1.88259534
O       6.48269501     0.67286070     6.12964917     1.05947693    -1.22778320    -1.88303732
O       1.45693721     3.87721505     5.88230884    -1.05947693     1.22778320     1.88303732
O       0.28848117     2.76761381     3.24472952    -2.20042778     0.73835965     0.35346511
O       7.65115118     1.78246195     8.76722855     2.20042778    -0.73835965    -0.35346511
O       4.25829307     1.78241940     2.76128767    -2.19978243    -0.73811643    -0.35383432
O       3.68133927     2.76765636     9.25067016     2.19978243     0.73811643     0.35383432
O       0.28846732     0.49257606     2.76124933    -2.20042778     0.73835965    -0.35346511
O       7.65116502     4.05749970     9.25070850     2.20042778    -0.73835965     0.35346511
O       3.68132543     0.49261860     8.76726683     2.19978243     0.73811643    -0.35383432
O       4.25830692     4.05745715     3.24469118    -2.19978243    -0.73811643     0.35383432
