# total energy = -19960.63233504 eV

CRYSTAL
PRIMVEC
        5.93400000     0.00000000     0.00000000
        0.00000000     9.29699974     0.00000000
        0.00000000     0.00000000     4.64899994
PRIMCOORD
24 1
Ti      4.47520898     6.85801598     2.28280599    -2.18869172     1.67436651     0.90429871
Ti      4.44360302     2.45984102     2.42061999     0.53823468    -1.34025821    -1.42154752
Ti      1.46295099     6.94805702     2.17676702     2.06416003     1.24233771     0.86387890
Ti      1.45547102     2.26867701     2.37078298    -0.42179452    -0.03605434    -0.37390590
Ti      3.01574400     4.64139397     0.06882802    -2.25453255     0.49597575     0.00111097
Ti      2.98107500     0.11089798     0.00868898    -0.08193158    -1.41689357    -0.27094604
Ti      5.91922299     4.68826299     4.51540603     2.31413383    -0.35161211     0.72780553
Ti      5.90792601     9.28062203     0.08132899     0.03018193    -0.33008709    -1.28565464
O       4.48982703     5.55169701     0.97533500     0.12775868    -0.90792397    -0.89322445
O       4.42617198     0.86538499     1.01178299     0.44480127     0.43708590     0.20379034
O       1.49320400     5.53130501     0.85841202    -0.35767015    -0.18206065     0.31240561
O       1.46011899     0.80417500     0.97771498    -0.16560842     1.04084697     0.77710439
O       4.42707798     8.45839102     3.80130398     0.36777125    -0.55321033    -0.75788822
O       4.40883100     3.82393699     3.80960200     0.74558445    -1.12342775    -1.11410646
O       1.48699098     8.44374800     3.71701303    -0.38715531    -0.25393047    -0.28616492
O       1.52858400     3.81423500     3.64163501    -0.51106556    -0.09652002     0.75657567
O       3.02392497     5.97438602     3.23321902     0.19415050     0.74788328    -0.33762428
O       2.95113500     1.41310800     3.25216198     0.23436077     0.97049282    -0.00754413
O       5.92986501     6.07978998     3.23321601     0.14884070    -0.25062352     0.25314757
O       5.87490397     1.51261502     3.31608998     0.08378611     0.07076604    -0.12404497
O       2.97057602     7.79117000     1.33353799    -0.01846130    -0.44184219     1.00100128
O       2.93537801     3.08561302     1.30290900     0.38415047     0.81411364     0.56875291
O       0.05717702     7.77144402     1.30247301    -0.62939395    -0.10406518     0.76202795
O       0.02146502     3.25437002     1.46428600    -0.66160937    -0.10535948    -0.25924828
