# total energy = -19899.08192281 eV

CRYSTAL
PRIMVEC
        8.44424008     0.00000000     0.00000000
        0.00002971     4.83927509     0.00000000
        0.00000000     0.00000000    12.77542945
PRIMCOORD
24 1
Ti      3.06064860     2.86775009     4.73959338     0.45256857    -0.52570517     2.58315822
Ti      5.38362139     1.97152540     8.03583660    -0.45256857     0.52570517    -2.58315822
Ti      7.28262393     1.97152711     1.64807061     0.45200345     0.52582730    -2.58401800
Ti      1.16164607     2.86774851    11.12735951    -0.45200345    -0.52582730     2.58401800
Ti      3.06063388     0.44811261     1.64812181     0.45216311    -0.52310784    -2.58386990
Ti      5.38363611     4.39116301    11.12730831    -0.45216311     0.52310784     2.58386990
Ti      1.16163134     0.44811070     8.03578540    -0.45158821    -0.52328268    -2.58479293
Ti      7.28263865     4.39116485     4.73964459     0.45158821     0.52328268     2.58479293
O       2.67266585     1.70399110     6.51920407     0.76777874     1.42491104    -2.21583203
O       5.77160415     3.13528432     6.25622591    -0.76777874    -1.42491104     2.21583203
O       1.54952463     1.70401060     0.13153019    -0.76728586     1.42503471    -2.21629997
O       6.89474543     3.13526488    12.64389940     0.76728586    -1.42503471     2.21629997
O       5.77158942     0.71564677     0.13148875    -0.76704829    -1.42491156    -2.21587369
O       2.67268057     4.12362871    12.64394084     0.76704829     1.42491156     2.21587369
O       6.89473070     0.71562727     6.51924551     0.76674876    -1.42485576    -2.21609609
O       1.54953915     4.12364821     6.25618441    -0.76674876     1.42485576     2.21609609
O       0.30681683     2.94352147     3.45096233    -2.31824194     0.75388835     0.17336004
O       8.13745316     1.89575402     9.32446765     2.31824194    -0.75388835    -0.17336004
O       4.52894729     1.89570877     2.93679324    -2.31882249    -0.75381070    -0.17383029
O       3.91532270     2.94356672     9.83863648     2.31882249     0.75381070     0.17383029
O       0.30680211     0.52388386     2.93675246    -2.31847925     0.75407501    -0.17378170
O       8.13746788     4.31539163     9.83867726     2.31847925    -0.75407501     0.17378170
O       3.91530798     0.52392911     9.32450836     2.31918476     0.75408710    -0.17406812
O       4.52896202     4.31534638     3.45092155    -2.31918476    -0.75408710     0.17406812
