# total energy = -19518.78607588 eV

CRYSTAL
PRIMVEC
        7.60600008     0.00000000     0.00000000
        0.00000000     7.60600008     0.00000000
       -1.89786986    -1.89786986     4.85670466
PRIMCOORD
23 1
Ti      3.88375302     6.83339500     1.09596699    -0.35520523     0.14256335     1.25290135
Ti      3.62911298     2.92049199     1.39235102     1.12838303    -0.70052714    -0.80862587
Ti     -0.01032298     6.63203898     1.17705499     0.13283635    -0.59092740    -0.94279843
Ti     -0.02488901     2.73192899     1.15349798     0.62084245     0.35556313    -0.08547970
Ti      5.63694223     2.75012623     3.70412380     0.00575002     0.95511093    -0.10585878
Ti      5.70478820    -1.01188279     3.51766079    -1.40449133    -0.50269456     0.90252439
Ti      2.02824422     2.83524423     3.83848180    -0.51563030    -0.54079344    -0.54253434
Ti      1.79094124    -0.86454979     3.50314879     1.31435254     0.07669989     1.95970584
O       3.96935199     4.71785802     0.89222899    -0.62602426     0.50588890     0.34096723
O       3.82570900     1.01639498     0.71157999    -0.20158228     0.45731843     0.66663510
O       0.04043798     4.69341400     0.77045302     0.14173366     0.92806883     0.82535785
O      -0.03919499     0.85670500     0.70153499     0.21427839     0.27865858    -0.34023575
O       5.83790120     4.63652623     3.85742783    -0.35618637     0.88851599     1.35303788
O       5.77996820     0.92155223     4.10028484     0.43348404    -1.25629264    -0.93950433
O       2.07206724     4.74028223     4.06909984    -0.91624380     0.34665605    -0.49645964
O       1.65656123     0.99174320     4.09897883    -0.16261925    -0.19193549    -0.53642899
O       3.80649822     2.75652123     3.35907483     0.19159097    -0.17500272    -0.66014307
O       3.82052121    -0.93315275     3.14916281     0.14707281    -0.02515054     0.02239869
O      -0.03362477    -1.23369378     3.16582581     0.34237568     0.66612088    -0.45494916
O       5.70302101     6.93157500     1.53412602     0.80289617    -0.88680775     0.47753991
O       5.89327299     2.84745198     1.83943901    -0.21013068    -0.54164448    -0.71343280
O       1.85298098     6.89371301     1.69789003     0.29687948    -0.32934352    -1.86486578
O       1.85304098     2.78638001     1.64044000    -1.02436182     0.13995471     0.69024864
