# total energy = -39033.48608091 eV

CRYSTAL
PRIMVEC
        5.93200024     0.00000000     0.00000000
        0.00000000     9.29399984     0.00000000
        0.00000000     0.00000000     9.29399984
PRIMCOORD
46 1
Ti      4.40477702     6.92866098     6.95853801     0.70600154     0.11506539    -0.19919038
Ti      4.55740899     6.93626103     2.31303900    -0.51167132     0.91390719     0.27291242
Ti      4.39975899     2.37071101     6.89389398     0.46929695    -0.56732441     0.95066575
Ti      4.17727399     2.55737702     2.04477100     1.80913401    -0.76796489     0.57319372
Ti      1.46033601     7.02593599     6.90310601     0.67820739    -0.47221952     1.12253197
Ti      1.51922798     6.92789098     2.31401898     0.51134787     0.20628894    -0.25448814
Ti      1.49868702     2.31847301     6.97117201    -0.68570113    -0.31254727     1.73638694
Ti      1.17164299     2.03938001     2.63048698     1.52718134     0.66947180    -2.27321933
Ti      3.04216598     4.71788300     4.62408803     1.52644497    -0.12437125    -0.10392840
Ti      3.05373300     4.84662701     9.14889600    -1.56153206    -1.02465827    -0.94624653
Ti      2.88652500     9.27557600     4.69333198     0.81380690     0.35230066    -0.06532533
Ti      2.97254297     9.21923201     0.12141501     0.06208419     1.10788722    -0.42866785
Ti      0.15064200     4.61699599     4.56500798    -1.80154334    -0.35771772     0.73827686
Ti      0.03554499     4.70996799     0.02325898     1.32225225    -0.93254460    -0.82355936
Ti      5.88438799     9.14773398     4.89103101    -0.70392486     1.11647959    -0.47750134
Ti      0.01228300     9.25084099     9.23884200    -0.31536752     1.36403090    -0.39035840
O       4.60417498     5.64904599     5.42462102    -1.17299632    -0.45213817     0.33583453
O       4.42773802     5.71707802     0.79035998     0.72328064    -0.67623226     0.66358217
O       4.49456602     0.71160402     5.90388601    -0.13511384     0.60312009    -1.30692076
O       4.59878801     0.88272798     0.92149699    -1.50324410     0.50093953     0.61241129
O       1.54670398     5.62280901     5.46038599     0.25646918    -0.01437787     0.54110506
O       1.57113101     5.72353499     0.84727199    -0.70506360    -1.06591009    -0.04238774
O       1.40136502     0.75533798     5.81595903     0.68578392     0.72466132    -0.95266247
O       1.49894801     0.88817300     0.96675699     0.00223686     0.00026765     0.81253703
O       4.46827501     8.39241002     8.30884500    -0.15482880     0.63779066     0.83435362
O       4.49331801     8.36389801     3.88790299    -0.36121776     0.19136034    -1.01680097
O       4.38897500     3.88439899     8.17036101     0.06280050     0.06069426     1.56004802
O       4.50824298     3.76229901     3.77124703     0.07119696    -0.94484605    -1.53606322
O       1.47871798     8.22611602     8.54243601     0.59679080     0.47848299    -1.11125511
O       1.49400099     8.25850998     4.08744498     0.05126087    -0.10607167    -2.64849846
O       1.49837401     4.05037998     8.22274500    -0.05091172    -0.62188915     0.76410360
O       1.60092703     3.73380699     3.78398300    -0.66197575    -1.24180035    -1.42792926
O       3.01378102     6.18614100     7.94494198    -0.67261343     0.52822537    -1.37083867
O       3.11611702     5.94185400     3.02936301    -1.00132652    -0.25728576     1.49291109
O       2.92556902     1.57103698     8.05546800     0.29726309    -0.22207089    -0.47127798
O       3.02298097     1.45131999     3.04281798    -1.23221605     0.14432559     0.99211323
O       5.76157998     6.07496801     7.85469900     1.65478523     0.08753401     0.06727705
O       0.07403401     5.93942201     3.04003498    -0.33190897    -0.29046097     1.00403981
O       0.07174601     1.58281398     8.04937299    -0.31288177    -0.76387606    -0.36745243
O       3.00305602     7.91348202     5.99423498    -0.69732380    -1.14890842     1.41614615
O       2.93450201     7.90905503     1.52416801     0.93568649     0.78892530    -0.19570627
O       2.89999198     3.01353701     5.86037901     1.13911971     1.01416919     0.29354681
O       0.05191001     7.75693498     6.05412599    -0.68570833    -0.08580649     0.70827773
O       0.04550300     7.90576301     1.48092799     0.13668684     0.00093228     0.32176134
O       0.01477802     3.16861098     6.04935800    -0.22989425     0.72656086    -0.97216789
O       0.02132299     3.18926302     1.24096299    -0.55015380     0.11760153     1.56842982
