# total energy = -19958.46465890 eV

CRYSTAL
PRIMVEC
        5.93400000     0.00000000     0.00000000
        0.00000000     9.29699974     0.00000000
        0.00000000     0.00000000     4.64899994
PRIMCOORD
24 1
Ti      4.44378998     7.06758202     2.47416702     0.41296843    -2.74362237    -1.14887165
Ti      4.45850301     2.21934600     2.22841498    -1.73937122    -0.45853276     3.31016979
Ti      1.50789401     6.97364502     2.25831599    -0.37687707    -0.39784494     0.98883944
Ti      1.40393302     2.60579398     2.17243099     2.15815291    -2.78796338     1.84784327
Ti      2.84469100     4.76162400     0.09121899     3.27960194    -1.34808131    -0.96986341
Ti      3.06938299     9.08729199     4.57036098    -1.73548139     3.27226838    -0.29385123
Ti      5.90191302     4.60141701     4.64556802    -3.13911269    -0.57790502    -1.95463819
Ti      0.02233202     9.28499499     0.16284700     1.44101233     2.36978075    -0.74232275
O       4.31923002     5.66576799     0.93100000     1.09400840    -0.42434197    -0.60654711
O       4.44991198     0.91910399     0.88827402     0.67378612    -1.62974499    -1.22614438
O       1.40507599     5.41265701     0.96972498    -0.47627801     1.45078663     0.64836972
O       1.38207699     0.88724599     0.97039402     0.50765551    -0.06872561    -0.92916566
O       4.51836799     8.52116202     3.59526903     0.72107463    -0.91703725     0.96451911
O       4.41269299     3.63631598     3.69014601     1.40976724     1.85683288     1.34715571
O       1.70988499     8.17296101     3.78206600    -1.52117807     0.86851023     0.46400382
O       1.47208602     3.62759800     3.82096201    -0.73699028     0.64636786    -0.41257299
O       2.86784102     5.98463602     3.28462002     0.93314573     0.97899546    -1.23821417
O       3.06856197     1.28851300     3.20347598    -0.36550122     0.29551551     0.03447439
O       0.08407600     6.07922698     3.15074098    -0.82516424    -0.22112472     1.02012901
O       0.01494502     1.42560198     3.13468098     0.80833996     0.15885952     0.08594044
O       3.03146898     7.93240698     1.59317299    -0.15625217     0.19078750    -1.60020506
O       3.14017601     3.33647500     1.32722300    -1.94195185    -1.17263508     1.09938766
O       0.01163603     7.85302299     1.34475698    -0.23001072    -0.60270229     0.66797491
O       5.88688502     3.28628402     1.45713300    -0.19534426     1.26155749    -1.35641014
