# total energy = -19961.04869689 eV

CRYSTAL
PRIMVEC
        5.93400000     0.00000000     0.00000000
        0.00000000     9.29699974     0.00000000
        0.00000000     0.00000000     4.64899994
PRIMCOORD
24 1
Ti      4.47299199     6.93925400     2.22723301    -0.87933329    -0.02676828     0.71498420
Ti      4.43097701     2.27174201     2.29002799     0.46606019     0.77366760     0.18229025
Ti      1.48560300     6.99861499     2.39874201     0.93037948    -0.82353390    -0.09126443
Ti      1.46118698     2.29861500     2.30413501    -0.33264559     0.86038940     0.64006968
Ti      2.99035302     4.66243099     4.64114002    -1.17628990    -0.76644228    -0.09433921
Ti      2.96948200     0.05084002     0.00983698     0.16038702    -0.27495182    -0.45387727
Ti      5.91717201     4.64041902     4.61415002     1.01106304    -0.76854056    -0.08541748
Ti      5.93335203     9.24683300     0.07362200    -0.36987595     0.66224931    -1.02956110
O       4.47858799     5.50608802     0.93711899     0.24035453     0.64167328    -0.03304923
O       4.41091998     0.86855402     0.85845001     0.31275168     0.53881678     1.24308076
O       1.49645997     5.56552700     0.91679101    -0.35788072    -0.29856021    -0.23447750
O       1.47732699     0.99567102     0.98235697     0.07364054    -1.42914617    -1.02958784
O       4.43604097     8.42411298     3.77188701    -0.01505999    -0.25929945    -0.12544417
O       4.44543101     3.76612200     3.71411102     0.48220569     0.33287391     0.27248381
O       1.45765699     8.50913203     3.76882101     0.15300795    -0.80244519    -0.41256939
O       1.54827299     3.74680999     3.67061101    -0.58169148     0.86817958     0.91972894
O       3.02243201     6.06911298     3.20294802    -0.15045716     0.34330231     0.25463727
O       3.01984301     1.50177498     3.21320501    -0.64613646    -1.20123141     0.95104807
O       5.86650302     6.11594897     3.23748901     0.27377297    -0.37900800     0.40835767
O       5.89548299     1.44454298     3.32950499     0.32931601    -0.03909775    -0.55720994
O       2.85121602     7.83013501     1.39958498     1.00401024     0.72108672    -0.14705173
O       3.00511801     3.21876402     1.35495200    -0.10294392     0.02898483     0.16640700
O       0.08356000     7.86057498     1.46696999    -0.94878935     0.68043602    -0.64156812
O       5.92463002     3.19235998     1.45178800     0.12415450     0.61736529    -0.81766973
