# total energy = -19932.22924429 eV

CRYSTAL
PRIMVEC
        6.14620635     0.00000000     0.00000000
        0.00002319     3.92485316     0.00000000
        0.00000000     0.00000000     9.38697189
PRIMCOORD
24 1
Ti      2.22771775     2.32586433     3.48249964    -0.42423089     2.45532678    -3.06536649
Ti      3.91851139     1.59898878     5.90447235     0.42423089    -2.45532678     3.06536649
Ti      5.30071518     1.59899010     1.21094886    -0.42380383    -2.45612614     3.06770156
Ti      0.84551401     2.32586316     8.17602318     0.42380383     2.45612614    -3.06770156
Ti      2.22770636     0.36343780     1.21098651    -0.42423089     2.45532678     3.06536649
Ti      3.91852278     3.56141541     8.17598558     0.42423089    -2.45532678    -3.06536649
Ti      0.84550256     0.36343638     5.90443470     0.42380383     2.45612614     3.06770156
Ti      5.30072658     3.56141683     3.48253724    -0.42380383    -2.45612614    -3.06770156
O       1.94532117     1.38200748     4.79009992     2.61573077    -2.21539392     3.39485811
O       4.20090802     2.54284558     4.59687207    -2.61573077     2.21539392    -3.39485811
O       1.12783406     1.38202333     0.09664414    -2.61602439    -2.21560732     3.39525071
O       5.01839518     2.54282978     9.29032755     2.61602439     2.21560732    -3.39525071
O       4.20089663     0.58041895     0.09661368    -2.61573077     2.21539392     3.39485811
O       1.94533256     3.34443411     9.29035801     2.61573077    -2.21539392    -3.39485811
O       5.01838374     0.58040315     4.79013034     2.61602439     2.21560732     3.39525071
O       1.12784535     3.34444996     4.59684160    -2.61602439    -2.21560732    -3.39525071
O       0.22331991     2.38731818     2.53565529     1.92768068    -0.28218330     2.16053427
O       5.92290928     1.53753487     6.85131665    -1.92768068     0.28218330    -2.16053427
O       3.29643016     1.53749839     2.15786051     1.92869678     0.28278803    -2.16149329
O       2.84979898     2.38735472     7.22911128    -1.92869678    -0.28278803     2.16149329
O       0.22330847     0.42489155     2.15783055     1.92768068    -0.28218330    -2.16053427
O       5.92292067     3.49996150     7.22914124    -1.92768068     0.28218330     2.16053427
O       2.84978758     0.42492809     6.85134656    -1.92869678    -0.28278803    -2.16149329
O       3.29644156     3.49992497     2.53562533     1.92869678     0.28278803     2.16149329
