# total energy = -19921.18753242 eV

CRYSTAL
PRIMVEC
        6.30529550     0.00000000     0.00000000
        2.27899686     6.31191152     0.00000000
        0.00000000     0.00000000    11.46733811
PRIMCOORD
24 1
Ti      3.63589787     3.74043282     4.25430067    -0.09319404    -2.23866472     0.69872428
Ti      4.94839471     2.57147853     7.21303757     0.09319404     2.23866472    -0.69872428
Ti      6.36637651     2.57148067     1.47932266    -0.32558817    -0.92616210     0.10610355
Ti      2.21791611     3.74043086     9.98801570     0.32558817     0.92616210    -0.10610355
Ti      2.49639960     0.58447723     1.47936864    -0.09319404    -2.23866472    -0.69872428
Ti      6.08789300     5.72743424     9.98796972     0.09319404     2.23866472     0.69872428
Ti      1.07841771     0.58447490     7.21299159     0.32558817     0.92616210     0.10610355
Ti      7.50587491     5.72743663     4.25434664    -0.32558817    -0.92616210    -0.10610355
O       2.79813943     2.22253127     5.85169486     1.83725855     2.12394026    -0.78144879
O       5.78615316     4.08938007     5.61564337    -1.83725855    -2.12394026     0.78144879
O       1.95950156     2.22255673     0.11806270    -0.39065330    -0.47809295     1.37016247
O       6.62479110     4.08935467    11.34927521     0.39065330     0.47809295    -1.37016247
O       4.64665486     0.93342436     0.11802549    -1.83725855    -2.12394026    -0.78144879
O       3.93763772     5.37848699    11.34931242     1.83725855     2.12394026     0.78144879
O       5.48529280     0.93339889     5.85173208     0.39065330     0.47809295     1.37016247
O       3.09899972     5.37851247     5.61560616    -0.39065330    -0.47809295    -1.37016247
O       1.61530100     3.83926229     3.09761411     0.57872263     2.31450664     2.24455589
O       6.96899158     2.47264906     8.36972412    -0.57872263    -2.31450664    -2.24455589
O       4.27450689     2.47259027     2.63609145     0.75360167     1.91519951     1.20316077
O       4.30978570     3.83932108     8.83124659    -0.75360167    -1.91519951    -1.20316077
O       0.47580271     0.68330657     2.63605481     0.57872263     2.31450664    -2.24455589
O       8.10848987     5.62860478     8.83128323    -0.57872263    -2.31450664     2.24455589
O       3.17028741     0.68336536     8.36976063    -0.75360167    -1.91519951     1.20316077
O       5.41400518     5.62854598     3.09757754     0.75360167     1.91519951    -1.20316077
