# total energy = -19939.99594981 eV

CRYSTAL
PRIMVEC
        5.93364116     0.00000000     0.00000000
        0.62997640     6.28368807     0.00000000
        0.00000000     0.00000000    10.63324344
PRIMCOORD
24 1
Ti      2.52398302     3.72370777     3.94485757     0.01420946    -1.29071355     0.73864787
Ti      4.03963472     2.55998035     6.68838624    -0.01420946     1.29071355    -0.73864787
Ti      5.37403556     2.55998249     1.37172186    -0.00450535     0.22616563    -0.39709803
Ti      1.18958220     3.72370593     9.26152213     0.00450535    -0.22616563     0.39709803
Ti      2.20899495     0.58186379     1.37176451     0.01420946    -1.29071355    -0.73864787
Ti      4.35462281     5.70182458     9.26147948    -0.01420946     1.29071355     0.73864787
Ti      0.87459404     0.58186147     6.68834364     0.00450535    -0.22616563    -0.39709803
Ti      5.68902365     5.70182683     3.94490023    -0.00450535     0.22616563     0.39709803
O       2.09986036     2.21259341     5.42606288     1.48009156     1.53529420    -0.27264759
O       4.46375739     4.07109478     5.20718093    -1.48009156    -1.53529420     0.27264759
O       1.31064836     2.21261882     0.10947521    -1.03446034     0.74144806     0.38672877
O       5.25296945     4.07106942    10.52376836     1.03446034    -0.74144806    -0.38672877
O       4.14876930     0.92925055     0.10944073    -1.48009156    -1.53529420    -0.27264759
O       2.41484845     5.35443763    10.52380283     1.48009156     1.53529420     0.27264759
O       4.93798136     0.92922520     5.42609741     1.03446034    -0.74144806     0.38672877
O       1.62563632     5.35446299     5.20714645    -1.03446034     0.74144806    -0.38672877
O       0.59877024     3.82209543     2.87230440     0.38536737     0.39683372     0.75862844
O       5.96484744     2.46159275     7.76093941    -0.38536737    -0.39683372    -0.75862844
O       3.42919855     2.46153423     2.44435131     0.56966823     0.82326934     0.09391086
O       3.13441920     3.82215389     8.18889237    -0.56966823    -0.82326934    -0.09391086
O       0.28378216     0.68025121     2.44431732     0.38536737     0.39683372    -0.75862844
O       6.27983553     5.60343692     8.18892630    -0.38536737    -0.39683372     0.75862844
O       2.81943111     0.68030972     7.76097334    -0.56966823    -0.82326934     0.09391086
O       3.74418664     5.60337846     2.87227047     0.56966823     0.82326934    -0.09391086
