# total energy = -19068.04033738 eV

CRYSTAL
PRIMVEC
        5.93400000     0.00000000     0.00000000
        0.00000000     9.29699974     0.00000000
        0.00000000     0.00000000     4.64899994
PRIMCOORD
22 1
Ti      4.45068802     6.99659702     2.38764701     1.26110214    -1.74397915     1.03742894
Ti      4.24106398     2.49352998     1.92637299     1.35898125     0.80184484     0.56122266
Ti      1.51243398     7.21816200     2.57104699    -0.99441283     0.35576188     0.79815685
Ti      1.63659902     2.30062000     1.99452801    -5.47413443     1.57056846     2.59274458
Ti      3.06629397     4.56262398     4.32501398    -1.66258776     1.17642309     0.67516448
Ti      3.02778903     0.14282198     0.40658101    -2.90905981    -1.66306470    -2.35896874
Ti      5.81838499     4.62048301     4.39546398     1.62275185    -0.54917833     0.22512999
Ti      0.03455702     9.16300497     0.35607602    -0.63546947    -2.07200036    -2.67869711
O       4.74592400     5.25477200     0.98173202    -2.85191625     1.69306358     0.97174854
O       4.47041802     0.72431401     1.06061599     3.55583005     3.28195758     3.25937712
O       1.18462900     0.30486399     1.59222598     2.14806904     3.05528956     0.90352764
O       4.55646298     8.69965198     3.92801901    -2.12371786    -1.39253184    -2.02178515
O       4.45416403     3.85604001     3.41320797     0.88443770    -1.69289157    -1.03122615
O       1.35597701     8.43977700     3.86009901     1.09617096     1.21191152     0.91177008
O       1.66290098     3.77834499     3.42329700    -1.12367071     0.69776989     0.66349656
O       2.89859802     6.32833601     3.86108100    -0.20169001    -0.75124808    -1.28094412
O       2.86985999     1.52599002     2.89563600     3.02389483    -1.17087207     4.02822106
O       5.89134398     6.29076300     3.47293399     0.97833777    -0.82263942    -0.34753949
O       3.09334800     8.06908299     1.97350602    -1.00644276     0.90640188    -2.78434378
O       2.75582801     2.27229198     0.73139398     2.21064586     1.09400326    -5.38484204
O       5.83291402     7.58764203     1.27466798     0.49462515    -1.33642264     1.32760581
O       0.04887799     3.34639501     1.25991298     0.34825528    -2.65016737    -0.06724774
