# total energy = -4983.28072398 eV

CRYSTAL
PRIMVEC
        3.82786877     0.00000000     0.00000000
       -0.00000713     3.13189246     0.00000000
       -1.91395993    -1.56598202     4.48596102
PRIMCOORD
6 1
Ti     -0.00016614     2.34903607     1.12149038    -0.00322262    -0.01011858     9.12234708
Ti      1.91406785    -0.78312582     3.36447079     0.00322262     0.01011858    -9.12234708
O       0.00003949     0.78296652     0.73072645     0.00300613     0.00615779    -1.46721496
O       1.91386213     0.78294363     3.75523476    -0.00300613    -0.00615779     1.46721496
O      -0.00001852    -0.78295940     2.97370686     0.00066000    -0.00004551     2.24036268
O       1.91392004     2.34886955     1.51225430    -0.00066000     0.00004551    -2.24036268
