# total energy = -19518.16667158 eV

CRYSTAL
PRIMVEC
        5.93400000     0.00000000     0.00000000
        0.00000000     9.29699974     0.00000000
        0.00000000     0.00000000     4.64899994
PRIMCOORD
23 1
Ti      4.45870802     7.06463800     2.24106798     0.21700684    -0.11918122     0.12900952
Ti      4.51244602     2.37408600     2.35009802    -0.43512260    -1.24036490     0.17125302
Ti      1.40040102     6.98330801     2.21818302    -0.30033813    -0.11808104     0.35536413
Ti      1.49119101     2.34017500     2.32865301     0.04139735    -1.04352117     0.50704873
Ti      2.98409798     4.48583899     0.18780098    -0.45704975     0.91996985    -0.13655905
Ti      2.99850198     0.03531898     4.59049601    -0.39285854     0.37936076     0.05567700
Ti      5.91919600     4.57399399     0.00520499     0.33694474     1.15013483    -0.68774593
Ti      0.01940398     0.02630598     4.58150402     0.29792335     0.37027833     0.17933605
O       4.48997901     5.48567199     0.91562402    -0.73214632     0.94206309     0.45038236
O       4.43372799     0.94652802     0.89800803     0.21621803    -0.01623292     0.02023176
O       1.45019300     5.51114298     0.97424903     0.66364414     0.36178726    -0.08575995
O       1.53402198     0.96035998     0.86259099    -0.82129113     0.05453338     0.29523834
O       4.41748500     8.40605401     3.62907901     0.34698207    -0.30424312     0.31655897
O       4.38428299     3.65437701     3.87578800     0.36109640    -0.19459042    -0.79576367
O       1.38786598     8.47548498     3.63915200     0.51695879    -0.81884344     0.00327662
O       1.58007300     3.66901099     3.79623102    -0.37780241     0.40409066     0.09724301
O       3.00498900     1.35561098     3.21923699    -0.22543492     0.68900217    -0.54037769
O       5.89230798     6.06066101     3.33996000     0.10823423     0.17564112    -0.78134131
O       5.93146498     1.44717399     3.24664001    -0.07113628     0.06497566    -0.08400800
O       2.91315299     7.91621400     1.37111201     0.25653551    -1.30992047     0.78518537
O       2.93502902     3.32764398     1.53266200     0.53155855    -0.87887975     0.65533999
O       5.91998702     7.73972799     1.33946600    -0.13794822     1.18050471    -0.66745657
O       0.00808498     3.37756101     1.57424898     0.05662780    -0.64848362    -0.24213296
