# total energy = -4988.03571953 eV

CRYSTAL
PRIMVEC
        3.01500364     0.00000000     0.00000000
        1.38603153     4.51615407     0.00000000
       -0.00000923    -0.00006191     4.77932806
PRIMCOORD
6 1
Ti      2.20051303     2.25804613     2.38966403     0.00000000     0.00000000     0.00000000
Ti      0.00000000     0.00000000     0.00000000     0.00000000     0.00000000     0.00000000
O       1.77761716     0.88011994     0.93142063    -1.69419923     0.86026907     0.79376772
O       2.62340895     3.63597230     3.84790738     1.69419923    -0.86026907    -0.79376772
O       0.42289208     1.37790112     3.32108572     1.69377551    -0.86013717     0.79349030
O       0.96313041     3.13819090     1.45824234    -1.69377551     0.86013717    -0.79349030
