# total energy = -4984.04178183 eV

CRYSTAL
PRIMVEC
        3.59397487     0.00000000     0.00000000
       -0.00000726     3.25169191     0.00000000
       -1.79701279    -1.62587859     4.37924491
PRIMCOORD
6 1
Ti     -0.00015710     2.43889111     1.09481101     0.00064046    -0.00775368     4.79486698
Ti      1.79711164    -0.81307770     3.28443337    -0.00064046     0.00775368    -4.79486698
O       0.00003651     0.81291685     0.71334314     0.00189413     0.00487738     1.14041863
O       1.79691788     0.81289646     3.66590134    -0.00189413    -0.00487738    -1.14041863
O      -0.00001843    -0.81290549     2.90296550     0.00213145     0.00009924     3.06667569
O       1.79697282     2.43871876     1.47627899    -0.00213145    -0.00009924    -3.06667569
