# total energy = -19073.55076972 eV

CRYSTAL
PRIMVEC
        5.17600016     0.00000000     0.00000000
        0.00000000     5.50899976     0.00000000
        0.00000000     0.00000000     9.26300011
PRIMCOORD
22 1
Ti      1.85534899     3.36950502     3.29295699     0.21117327     0.05482340    -0.73056972
Ti      3.48506199     2.22060798     5.91913801    -0.93353834     1.76874197    -0.54836174
Ti      4.48143099     2.31990798     1.37366900    -0.04217896     0.19275182    -1.70185418
Ti      0.73480902     3.10557602     8.06393399     0.69821263     0.33799040     0.54517486
Ti      1.82863602     0.46491201     1.32668398    -0.06404055     0.21033586    -2.67876859
Ti      3.32017200     4.94031398     8.05270300    -0.51377345     0.03957623     1.83215568
Ti      1.03405600     0.28432403     6.00683501     0.20363530    -0.61736246    -0.50242588
Ti      4.27965899     5.16535301     3.53695602    -0.01075390    -0.54110686    -0.13464358
O       3.43247003     3.50668999     4.27768198     1.04389552    -0.58099188     1.86448089
O       0.85972798     1.81256401     0.23005198    -0.77384037     1.19785607    -1.83121723
O       4.30616500     3.62425000     9.08980399    -0.07806618    -0.41231665    -0.55754547
O       3.41604399     0.80961801     0.16878802    -0.00402378    -0.91109311    -0.75281414
O       1.56789901     4.58831898     8.83611499     0.37732367     0.53496706     1.02258570
O       3.42174699     0.83569698     4.71392401     1.12779605    -1.10476436    -1.75519199
O       0.89932203     4.96423200     4.25692098    -0.24217487     0.43480764     2.69285361
O       0.29956698     3.74424703     2.34948598    -1.74745348    -1.83152782    -0.95271363
O       0.03661901     1.87458702     6.43901798     1.18321723    -0.13445178     0.60724080
O       2.64652502     1.94635901     2.07599902     0.42750262     1.61976834     1.97580764
O       2.45103901     3.60556999     6.81005998    -0.88653727    -0.11896036    -0.07605866
O       0.04266698     0.78560199     2.13580500    -0.28800506    -0.32185313     1.89857630
O       2.52208798     0.89742101     6.96061302    -0.14466086    -0.02802401     0.22011351
O       2.75662199     4.71168999     2.34940798     0.45629076     0.21083439    -0.43682416
