# total energy = -19958.97518374 eV

CRYSTAL
PRIMVEC
        5.93400000     0.00000000     0.00000000
        0.00000000     9.29699974     0.00000000
        0.00000000     0.00000000     4.64899994
PRIMCOORD
24 1
Ti      4.50771099     6.85770498     2.39017500    -1.33453056     1.54050583     0.14995862
Ti      4.42341401     2.51818001     2.37564702     0.38637293    -4.30908951    -0.02205827
Ti      1.49166902     6.87508898     2.10772002     1.41564093     1.67186174     1.64945328
Ti      1.47125002     2.55529603     2.34011298     0.47019015    -3.02509914     1.46390364
Ti      3.00070399     4.65505601     0.02269303    -0.33657553    -0.11565649    -0.65894390
Ti      2.92713502     9.07936602     4.63098702     0.29714327     1.34897657    -0.89016201
Ti      5.88501602     4.65558402     4.64267400     0.28659481    -0.74577677     0.27912420
Ti      0.01251700     0.02084800     0.13607200    -0.65910742     1.02146727    -0.44718160
O       4.36171099     5.63641898     0.76921898     0.50575186    -0.33936003    -0.33623126
O       4.45941399     0.82100803     0.95643099     0.67191795    -0.19379157    -0.91623995
O       1.46619897     5.53576401     0.84520201    -0.03909698     0.16497361    -0.59517744
O       1.54237399     0.89299100     0.86927502    -0.55466223    -0.40583387    -0.30587089
O       4.51354502     8.24488001     3.70013597    -0.55746114     0.99511782     0.68083094
O       4.42335400     3.56725602     3.82353101    -0.11111901     2.60546718     2.37297072
O       1.46956301     8.27269500     3.67682598     0.41011476     0.27023050     0.66719843
O       1.40245899     3.76477598     3.78844597     0.94312984     0.34708440     0.14406411
O       3.00717001     5.89360700     2.90145801    -1.09449382    -0.56462860     2.27437710
O       2.98078200     1.48251298     3.17579900     0.01217495     0.31145327    -0.40498104
O       5.73519700     5.93140201     3.33092398     2.02453135     0.35112643    -1.53616118
O       5.92075300     1.67670299     3.26472999     1.12876099    -1.47842935    -0.23944615
O       2.98766099     7.85499200     1.41263401    -0.92551212    -0.17810218    -0.24674706
O       3.12064000     3.53753002     1.58752101    -1.81279989    -0.01415110    -1.51242706
O       5.92343302     7.76071198     1.42770599     0.39755363     0.43016552    -0.68916955
O       0.12827098     3.41773397     1.48587802    -1.52451896     0.31148875    -0.88108344
