# total energy = -19959.30565241 eV

CRYSTAL
PRIMVEC
        7.60600008     0.00000000     0.00000000
        0.00000000     7.60600008     0.00000000
       -1.89786986    -1.89786986     4.85670466
PRIMCOORD
24 1
Ti      3.70866203     6.54603001     1.28312698     1.32158634    -0.82177295     0.55427400
Ti      3.63392902     2.85598999     1.14284802     1.72835044     1.76665886     0.60346770
Ti      0.05232002     6.57139897     1.20083002    -1.61077642     0.73910296     1.10270567
Ti      0.01845299     2.87829598     1.18478399    -1.98472191    -0.57279186    -1.90412474
Ti      5.67900123     2.85139425     3.60449380    -0.95816849     0.37441986    -0.09576129
Ti      5.88017823    -0.94402380     3.72601481    -0.46493636    -0.87878539    -0.93352908
Ti      1.72662324     2.94012722     3.53388081     3.11950597     1.17112455     2.31440199
Ti      1.96045820    -0.84951777     3.77061482     0.09674293    -1.18879318    -2.05149169
O       3.84742601     4.77712402     0.78749401    -0.10938094    -1.86873375     0.00915853
O       3.67891401     0.90086500     0.69801199    -0.01037903     1.90223935     2.34239952
O       0.06092598     4.76688799     0.67003698    -0.58618603    -2.38472221    -0.37176597
O       0.06809702     0.92589302     0.89149899     0.43302715     1.12393785    -0.82756822
O      -1.62077578     4.69025725     4.22641482    -0.19887208     0.51125145    -3.08859410
O       5.96673321     0.89839422     3.92393181    -0.61635022     1.01905866     0.54544663
O       1.74812424     4.70469320     4.29060179     0.02616690     0.23820020    -2.60187612
O       1.59937923     1.06303020     3.98601181     0.94766295    -1.43695024     0.72242292
O       3.72470022     2.86435321     3.31740583     1.10150548    -0.38157885    -1.65466722
O       3.88856324    -1.07261577     3.46444482    -0.91519531     0.71936434    -1.04946479
O       0.02091425     2.82584525     3.03649082    -2.03575550     0.18321019     0.78782178
O       0.10677522    -1.02830977     3.18477983    -0.35445961     0.05693530     0.98747624
O       5.80153201     6.43451400     1.56284097    -0.98223633     0.83770994     1.38231428
O       5.72422001     2.94735498     1.40376098    -0.85265526    -0.41432160     1.13783570
O       1.88369299     6.40409398     1.61961598     2.01328714     0.64027280     1.27859722
O       1.86689802     3.30106902     1.54617200     0.89223818    -1.33503656     0.81052077
