# total energy = -19958.29898953 eV

CRYSTAL
PRIMVEC
        5.93400000     0.00000000     0.00000000
        0.00000000     9.29699974     0.00000000
        0.00000000     0.00000000     4.64899994
PRIMCOORD
24 1
Ti      4.44848500     7.06543600     2.48171398     0.03045499    -2.32222098    -0.84642984
Ti      4.44640401     2.21844999     2.22640898    -1.53883230    -0.54402249     3.57399516
Ti      1.49158001     6.96722102     2.25837700    -0.15682578    -0.07591545     1.04251047
Ti      1.40182498     2.60193998     2.14301101     1.44615479    -2.61417011     1.91236539
Ti      2.83539002     4.74164301     0.10408297     3.81882083    -0.96074088    -1.69589487
Ti      3.04591901     9.10943499     4.58201500    -1.10892466     2.60635884    -0.43853446
Ti      5.89294199     4.58810101     0.03902100    -3.39951695    -0.01341396    -2.59919394
Ti      0.01669702     0.00805201     0.12765502     1.09534255     1.93646614    -0.34645808
O       4.30697602     5.64616399     0.91265697     1.26613585    -0.54205765    -0.42646158
O       4.44218102     0.92416198     0.87390400     1.18807636    -1.45139342    -1.02371081
O       1.42515398     5.41507498     0.94680902    -0.93850365     1.90892653     1.39181502
O       1.47246300     0.89146602     0.94788700     0.01656202    -0.02360505    -0.86183718
O       4.57841902     8.53660701     3.56998398     0.18789526    -0.62718048     1.71732349
O       4.42641402     3.64033302     3.65316700     1.29631059     1.51264817     1.43030085
O       1.71634699     8.13424302     3.78693999    -1.52562196     1.09473139     0.46033357
O       1.47002900     3.63497600     3.88171600    -0.71174384    -0.02303092    -1.48967844
O       2.89481001     6.01871398     3.33994502     0.45260946     0.69384407    -1.67299148
O       3.10882199     1.26303201     3.23863198    -0.47217736     0.63244070    -0.37286692
O       0.01638698     6.07251299     3.09997902     0.50953499    -0.41534207     1.15305689
O       0.05769598     1.40808901     3.15618600     0.86921420     0.60159311    -0.44454493
O       3.09624101     7.96357801     1.58988802    -1.31628138    -0.12244086    -1.62424463
O       3.15092598     3.28561900     1.32629398    -2.18712386    -0.93237183     1.11688608
O       5.91752698     7.87385400     1.36952401     0.53818711    -0.21042070     0.04525015
O       5.84752202     3.33377402     1.42630901     0.64025300    -0.10868237    -0.00098936
