# total energy = -4987.99081610 eV

CRYSTAL
PRIMVEC
        3.54686071     0.00000000     0.00000000
        0.52904539     3.50718289     0.00000000
       -2.03798501    -1.75361895     4.53944096
PRIMCOORD
6 1
Ti      0.39665507     2.63052122     1.13485999     0.00171184    -0.00185377    -0.00286472
Ti      1.64126639    -0.87695696     3.40458047    -0.00171184     0.00185377     0.00286472
O       0.13229865     0.87679048     0.73943772     0.00034813     0.00163034     1.13449301
O       1.90562265     0.87677365     3.80000275    -0.00034813    -0.00163034    -1.13449301
O      -0.13227695    -0.87677180     3.00915820     0.00162802     0.00038618     1.12947627
O       2.17019820     2.63033593     1.53028227    -0.00162802    -0.00038618    -1.12947627
