# total energy = -19960.01636972 eV

CRYSTAL
PRIMVEC
        7.60600008     0.00000000     0.00000000
        0.00000000     7.60600008     0.00000000
       -1.89786986    -1.89786986     4.85670466
PRIMCOORD
24 1
Ti      3.62888702     6.75723502     1.33219399     4.34592546    -1.18509825    -1.39373075
Ti      3.82554903     2.93903600     1.22919101     0.30876184     1.57203245    -0.36537986
Ti      0.14518602     6.52332603     1.18631998    -2.81681039     0.52757771    -0.61938927
Ti      0.03400599     2.76417202     1.10878001    -0.04364166    -0.46483094     1.82627376
Ti      5.75080122     2.68019122     3.54509879     0.00594362     1.11195959     0.05640642
Ti      5.63196224    -1.09428579     3.55597079     0.49999773    -0.92540645    -0.10716953
Ti      1.93636423     3.02687524     3.58339080     0.00947298    -1.55176855     0.64998463
Ti      1.79576723    -0.87131479     3.69472482    -0.06008387     1.28647097     1.16106048
O       3.60773798     4.87252098     0.97314601     0.67410416    -0.04227461    -1.17620891
O       3.72410299     1.13100699     1.02220503    -0.15028284    -2.66669134    -1.88544078
O       0.16388101     4.61256001     0.81156401     0.20255801     0.96877917    -0.45654376
O       0.12020298     0.79042301     0.81302099     0.13090854     0.54312903    -0.67171252
O       5.64090825     4.61157325     3.97369283     0.89263541     0.89697466     0.90710070
O       5.55906025     0.84302021     4.12497180     0.26981835     0.13614099    -1.35900439
O       1.78901721     4.78063321     4.05864483     0.02747688     2.14277540     0.74879345
O       1.96241224     1.00251625     3.98208183    -0.13173900    -0.12718121     1.14820548
O       3.91650523     2.99807424     3.28748980    -0.93600660    -0.59966530    -0.26329597
O       3.76682321    -0.90214275     3.23248982     0.10493781    -0.20170337     0.73194860
O       0.06632422     2.84531421     3.15270079    -1.00158723    -0.38571704     0.25473857
O      -0.06977276    -0.74282076     3.10605879     1.90254840    -0.63902762     1.41222676
O       5.78860400     6.45071698     1.67000498    -0.86269748     0.29392708    -0.42752268
O       5.69360197     2.76299799     1.54356702     1.54007285     0.03007986     0.64888471
O       1.96977399     6.75743002     1.76800199    -3.55277583    -0.28328708    -0.23682491
O       2.00696298     2.96199298     1.72092601    -1.35953712    -0.43719491    -0.58340024
