# total energy = -19516.90333599 eV

CRYSTAL
PRIMVEC
        5.93400000     0.00000000     0.00000000
        0.00000000     9.29699974     0.00000000
        0.00000000     0.00000000     4.64899994
PRIMCOORD
23 1
Ti      4.40403401     7.08311898     2.40693002     2.35788631    -0.85727553     0.03324669
Ti      4.37762298     2.37893400     2.27116700     0.38518071    -1.32686893     0.20832577
Ti      1.41220300     7.09358701     2.11946802    -1.17498044    -1.45339862     0.55599484
Ti      1.44374799     2.27699002     2.41303498    -0.09481384     0.24444207     0.51813661
Ti      3.02918198     4.55004798     0.12563001    -0.82550748     0.67180431     1.21143150
Ti      3.01907501     0.03603300     0.10147000     1.10275401     1.12117854    -0.82079208
Ti      5.90667101     4.44114701     4.51893400     0.67503850     1.78351553     0.34110864
Ti      0.13990700     0.06153300     4.58807101    -1.09463421    -0.01511475     0.48545685
O       4.45540600     5.51919002     0.93837102    -0.66192613     0.07587328    -0.67125846
O       4.60605599     0.92203299     1.01277599    -0.83413817    -0.51731180    -0.71948543
O       1.36980902     5.45428098     0.80036001     1.11186035     1.37318788     0.64314164
O       1.47533300     1.05024301     1.03768198     0.12591751    -1.92659979    -1.63480236
O       4.48986502     8.37761502     3.79214498    -0.20402405    -0.24805293    -0.24186068
O       4.27257902     3.87826900     3.50130699     0.41129978     0.18618290     1.66132869
O       1.65828598     8.40110901     3.73747800    -0.87733991    -0.45409478    -0.30771951
O       1.64585999     3.62666098     3.80225300    -1.74338445     0.15795090    -0.81524981
O       2.98953501     1.35644200     3.31709399    -0.21677339     0.60591771    -0.29272483
O       5.84017100     5.98174999     3.21705599     0.50799849     0.93480332    -0.56180090
O       5.87351298     1.36971499     3.30442501     0.56512766     1.08252893    -0.38862496
O       2.98529202     7.84024299     1.34545602    -0.32753527    -0.48027248     0.89524714
O       2.95093799     3.12773399     1.31666100    -0.28312304     0.16225132     0.54715204
O       0.01174001     7.95235802     1.39577501    -0.25196178    -0.45457841     0.34799920
O       5.81235501     3.36271102     1.57046398     1.34707935    -0.66606843    -0.99425059
