# total energy = -19518.51454588 eV

CRYSTAL
PRIMVEC
        5.93400000     0.00000000     0.00000000
        0.00000000     9.29699974     0.00000000
        0.00000000     0.00000000     4.64899994
PRIMCOORD
23 1
Ti      4.49346099     7.06034399     2.23741999     0.60327924     0.28745972     0.36255628
Ti      4.45435702     2.27313501     2.32666701     0.72559155    -0.11459668     0.53791406
Ti      1.44937399     7.04371999     2.27327302    -0.60233102     0.23896587     0.12655360
Ti      1.48440198     2.32762302     2.33830002    -0.75787176    -0.64864406     0.17916945
Ti      2.95446998     4.49083802     0.08645798     0.34429424    -0.47663925     0.10302003
Ti      2.99372001     0.03283598     0.01047199    -0.45796095     0.23969118    -0.25874049
Ti      5.92327400     4.73460500     0.04836199    -0.15985891    -0.53198047    -0.84767143
Ti      0.01250599     0.01058497     4.61318798     0.37646749     0.37021791    -0.22174693
O       4.46288000     5.59979599     0.89424499    -0.50769896    -0.04743224    -0.06903800
O       4.44515103     0.92157102     0.95750501    -0.29944364    -0.58440502    -0.60969389
O       1.49483900     5.58901200     0.93350201     0.45078680    -0.18005211    -0.40694176
O       1.40773103     0.89100500     0.93120898     0.67263786    -0.29022366    -0.32391464
O       4.37314402     8.39196001     3.68066400     0.14408673    -0.36160394     0.52180429
O       4.44734499     3.76423802     3.73594402    -0.20773004     0.27286022     0.05649718
O       1.45896099     8.35682402     3.69115197     0.37009115    -0.15485452     0.56824126
O       1.53865900     3.62220298     3.77512801    -0.23531568     1.35834541     0.17782785
O       2.96716198     1.45484802     3.32444600     0.12924889    -0.37292991    -0.29171542
O       5.90485398     6.00917900     3.16225699     0.26594370     0.13334080     0.39457501
O       5.93291101     1.29362898     3.20170398    -0.20329849     0.77416896     0.05127553
O       2.98957100     7.89153402     1.41157402    -0.43351155    -0.63153465     0.31187441
O       2.96039402     3.16628302     1.37730402     0.18300065     0.20045099     0.32089565
O       0.00542798     7.96238498     1.47069201    -0.13231519    -0.40734774    -0.48682159
O       0.01461598     3.14942698     1.42697699    -0.26809185     0.92674342    -0.19591993
