# total energy = -4962.12600954 eV

CRYSTAL
PRIMVEC
        5.46797645     0.00000000     0.00000000
       -0.00000756     2.63272924     0.00000000
       -2.73401886    -1.31643817     5.89077062
PRIMCOORD
6 1
Ti     -0.00023360     1.97463422     1.47269235    -0.01384848    -0.01705388    28.05603877
Ti      2.73418358    -0.65834333     4.41807754     0.01384848     0.01705388   -28.05603877
O       0.00005819     0.65816968     0.95955826     0.01321368     0.01635479   -21.76821365
O       2.73389162     0.65812110     4.93121169    -0.01321368    -0.01635479    21.76821365
O      -0.00002234    -0.65819962     3.90494346    -0.00174398    -0.00059290    -1.82648151
O       2.73397209     1.97449040     1.98582649     0.00174398     0.00059290     1.82648151
