# total energy = -4986.58796128 eV

CRYSTAL
PRIMVEC
        4.21601846     0.00000000     0.00000000
        1.03777978     4.08629720     0.00000000
       -2.62693751    -2.04317846     5.42377587
PRIMCOORD
6 1
Ti      0.77819793     3.06487938     1.35594388    -0.00044069     0.00044069     0.00000000
Ti      1.84866300    -1.02176049     4.06783164     0.00044069    -0.00044069     0.00000000
O       0.25948915     1.02156848     0.88348871    -0.00071811    -0.00137605    -1.29545801
O       2.36737159     1.02155032     4.54028682     0.00071811     0.00137605     1.29545801
O      -0.25945903    -1.02154505     3.59537647    -0.00137605    -0.00071811    -1.29545801
O       2.88631976     3.06466379     1.82839905     0.00137605     0.00071811     1.29545801
