# total energy = -19517.63240942 eV

CRYSTAL
PRIMVEC
        5.93400000     0.00000000     0.00000000
        0.00000000     9.29699974     0.00000000
        0.00000000     0.00000000     4.64899994
PRIMCOORD
23 1
Ti      4.54287101     7.03615699     2.34180798     0.07671583    -0.39386487    -1.00954120
Ti      4.42429398     2.28909198     2.35246800     0.93424616     0.14202651     0.27685906
Ti      1.48683699     6.98705998     2.32030201     0.12812712     0.98707798    -0.30503528
Ti      1.45685497     2.30499201     2.20020402    -1.02307627    -0.25383045     0.94720890
Ti      2.92215101     4.45486302     0.01256500     0.28652127     0.43638425     0.28965185
Ti      2.98961302     0.08700902     0.04779301    -1.70293713    -0.97239415    -0.45846463
Ti      5.92216300     4.69627299     0.05088902    -0.38334314     0.11420330     0.19736875
Ti      5.85137099     9.29534898     4.59354497     1.79339680     0.07719149    -0.79684610
O       4.41224498     5.66312899     0.93115003     0.00592999    -0.95661631    -0.44504141
O       4.49216901     1.01230899     0.86686002    -0.06614577    -0.72545785    -0.36999782
O       1.50490199     5.50162102     1.04729401     0.64016482     0.06407731    -0.89163911
O       1.40236300     0.98542398     0.87624000     0.43716329    -0.73110605    -0.37627492
O       4.36606400     8.34836999     3.64681502     0.33472382     0.72445538     1.78573722
O       4.52267798     3.69389698     3.71410102    -0.76843000     1.04133008     0.42490889
O       1.54810101     8.52915900     3.64532898    -0.32534340    -0.76403213     1.00149622
O       1.49492801     3.59518801     3.85513400    -0.03300912     1.09919817    -0.84410659
O       3.04035402     1.42163701     3.25954702    -0.31652246     0.28114715    -0.41195310
O       0.13134201     6.08693397     3.31336900    -0.58814264    -0.35837103     0.40528417
O       5.92188698     1.31805898     3.11111100    -0.41321885     0.23551185     0.54527745
O       2.94680099     7.89401798     1.45701600     0.53121171    -0.25826072     0.04130479
O       2.89471598     3.19711903     1.30029698     1.13066797    -0.52556068     1.45600855
O       0.05731000     7.86765902     1.55319899    -0.40361038     0.96616668    -1.74287820
O       0.04317002     3.30806601     1.44042100    -0.27508911    -0.22927590     0.28067304
