# total energy = -4958.12105368 eV

CRYSTAL
PRIMVEC
        5.33962020     0.00000000     0.00000000
       -0.00000738     2.57092808     0.00000000
       -2.66984002    -1.28553587     5.75248962
PRIMCOORD
6 1
Ti     -0.00022812     1.92828131     1.43812210    -0.01712150    -0.01858960    32.35988991
Ti      2.67000087    -0.64288926     4.31436680     0.01712150     0.01858960   -32.35988991
O       0.00005682     0.64271969     0.93703342     0.01551507     0.01807743   -25.48719388
O       2.66971576     0.64267225     4.81545555    -0.01551507    -0.01807743    25.48719388
O      -0.00002181    -0.64274892     3.81327812    -0.00176686    -0.00026919    -1.68852275
O       2.66979434     1.92814086     1.93921084     0.00176686     0.00026919     1.68852275
