# total energy = -19072.23904342 eV

CRYSTAL
PRIMVEC
        5.17600016     0.00000000     0.00000000
        0.00000000     5.50899976     0.00000000
        0.00000000     0.00000000     9.26300011
PRIMCOORD
22 1
Ti      1.88616102     3.26938702     3.38004100     0.38209255     1.40258126    -0.29251863
Ti      3.43556402     2.11778201     5.99317800     1.06437900     0.46874905    -2.42187363
Ti      4.35017900     2.28804601     1.44922302     0.89131824    -0.17176415    -3.19227876
Ti      0.81236900     3.11846101     7.90205502    -1.52243919    -0.51631627     2.10663570
Ti      1.78543198     0.51083300     1.24988301     1.34358393    -0.31777638    -2.16698877
Ti      3.38960201     5.13590800     7.98560300    -0.43753636     0.63372086     2.06817712
Ti      0.67917201     0.29196302     6.17203700     0.32976519    -1.84692204    -1.57590067
Ti      4.60203901     4.95800199     3.29503200    -1.32225585     0.28390620     0.92710878
O       3.49264801     3.26399698     4.26788702     0.75869554     0.06235416     1.66280142
O       1.00397201     2.01212701     0.06135900    -0.17091646    -0.70595243     0.98671520
O       4.39581398     3.66205299     8.74895399    -1.20126612     0.63640432    -0.23304950
O       3.51766502     0.85617498     0.20062798     0.51118923     0.30932388     0.81784636
O       1.77405699     4.85324802     9.07146001    -0.84252819    -1.29687469    -0.92945285
O       4.43894198     0.75851399     4.91924002    -0.89019261     0.39657481     0.01635788
O       1.10980101     4.82737099     4.08221999    -0.34883789    -0.19676043     2.34695577
O       0.26723901     3.71356300     2.16540500    -0.53210671    -0.83192239    -0.39866281
O       4.61676998     1.07046398     7.32823600     0.52513850     0.61000602    -0.57064705
O       2.60888798     2.14483498     2.00449998     0.23856298    -0.07231770     0.92259032
O       1.70419999     4.06475402     6.59691199     1.75111833     0.53215453    -0.27930624
O       0.18670897     0.99179501     2.35321202    -0.43963618    -0.02857037    -0.06166330
O       2.11749599     1.27184900     6.99535102    -0.64066669     0.03812202     0.06108712
O       2.83563201     4.75499499     2.33460001     0.55253876     0.61128026     0.20606577
