# total energy = -4983.49289096 eV

CRYSTAL
PRIMVEC
        2.96495839     0.00000000     0.00000000
        1.98980654     4.19793889     0.00000000
       -0.00001300    -0.00006242     4.77402183
PRIMCOORD
6 1
Ti      2.47737587     2.09893826     2.38701081     0.00000000     0.00000000     0.00000000
Ti      0.00000000     0.00000000     0.00000000     0.00000000     0.00000000     0.00000000
O       1.87026058     0.81810435     0.93038651    -5.25163442     2.44483231     3.00041345
O       3.08449110     3.37977217     3.84363511     5.25163442    -2.44483231    -3.00041345
O       0.60710985     1.28080871     3.31739831     5.25198743    -2.44648656     3.00232918
O       1.38268357     2.91706767     1.45662331    -5.25198743     2.44648656    -3.00232918
