# total energy = -19959.50747865 eV

CRYSTAL
PRIMVEC
        7.60600008     0.00000000     0.00000000
        0.00000000     7.60600008     0.00000000
       -1.89786986    -1.89786986     4.85670466
PRIMCOORD
24 1
Ti      3.67852300     6.68892601     1.30087702    -1.07016707     0.60926811     1.36973643
Ti      3.74510699     3.03396500     1.23954199     0.61806309    -0.54620202     0.39640769
Ti     -0.04778301     6.59679398     1.17229298     2.19246147    -1.31511410    -0.58854579
Ti      0.12480899     2.65461201     1.08075097    -2.05867407     2.41702247     0.36163171
Ti      5.79055122     2.87649423     3.59248783     0.38878565    -1.86925723    -0.79752976
Ti      5.79956623    -1.08633078     3.53250479    -1.36027683     1.54085807     0.28097540
Ti      1.91827420     2.96678023     3.72297881    -1.02635905     0.02115942    -1.00614966
Ti      1.76804025    -0.96395277     3.80585681     2.21374250     0.12595453    -0.83990952
O       3.62040600     4.87348498     0.83982599     0.59164165    -1.22161898     0.01644118
O       3.72306798     0.96308799     0.85541201    -0.11982476     1.27837713     0.80669780
O       0.24200900     4.61546498     0.62499601    -1.25775199     1.08485810     0.42514261
O       0.33485299     0.86478099     0.67758898    -1.01309678    -1.10672534     0.26711998
O       5.94424821     4.64834720     4.04461581    -0.99471570     1.91645293     0.39991236
O       5.70148322     0.83640020     3.77683381    -0.38288368    -0.51543361     1.04711275
O       1.63516622     4.83593821     4.23572680     0.13759058    -0.73517483    -0.98322544
O       2.01793225     1.14649024     4.20618379    -0.30128661    -1.45962506    -1.01857786
O       3.72554320     3.08384324     3.14099084     0.73533218    -0.03249850     1.06774252
O       3.58120820    -1.21645779     3.23356479     1.93517185     0.72761475     0.70881304
O       0.03387322     2.95572022     3.05314582     0.20894746    -0.96700177     1.43990855
O       0.00488420    -0.88908779     3.22866180    -1.02318117     0.10727829    -0.76717119
O       5.65071401     6.52749197     1.59109502     0.88107110     0.01051067     0.03883216
O       5.82110998     2.95439500     1.66748800    -1.65479578    -0.45085905    -1.52828691
O       1.81406401     6.44300898     1.73050899    -1.04046670     0.99023247    -0.40434520
O       1.77012103     3.00708798     1.70078399     3.40067240    -0.61007673    -0.69273207
