# total energy = -19961.70080793 eV

CRYSTAL
PRIMVEC
        7.60600008     0.00000000     0.00000000
        0.00000000     7.60600008     0.00000000
       -1.89786986    -1.89786986     4.85670466
PRIMCOORD
24 1
Ti      3.81164902     6.73010997     1.14333301     0.65795711     0.15093975    -0.31599178
Ti      3.78015699     2.89437900     1.22531902     1.01659554    -0.37983615    -0.59117011
Ti     -0.05316898     6.64769099     1.20271098    -0.46140289    -0.60512427     0.57392417
Ti     -0.00980100     2.77126099     1.25342903    -0.74630976     0.47907460     0.19814137
Ti      5.63394020     2.80329722     3.69652979     0.75800854    -0.33226918    -0.24552399
Ti      5.66304723    -0.96363177     3.66416780     0.41659960     0.18892396    -0.24447703
Ti      1.92199125     2.86556323     3.60300581    -0.49252945    -0.05126807     0.72097076
Ti      1.92180524    -0.90436979     3.50065679    -0.15985788     0.04283819     1.19364691
O       3.94151399     4.79908901     0.82126801    -0.45934703    -0.13231905    -0.32123709
O       3.89884902     1.05157198     0.75370398    -0.55225825    -0.80383385    -0.55870015
O      -0.12078899     4.69672999     0.84601102     0.20799332     0.29244381    -0.17253368
O      -0.08731800     0.86659199     0.90620699     0.34608270     0.83607395    -0.68799301
O       5.59428922     4.70815122     4.11870280     0.15505789     0.03907461    -0.31481627
O       5.80921821     0.88357921     4.12793382    -0.22103988     0.04870417     0.12695958
O       2.12230822     4.79761922     4.01499580    -0.61562517    -0.05303596    -0.07596404
O       1.92715723     1.00889320     4.05372782    -0.23761604    -0.66347393    -0.04875276
O       3.83185121     2.60647625     3.24374880    -0.24367536     0.72773482    -0.38429830
O       3.84189722    -0.95568877     3.12508980    -1.35168728     0.23073783     0.76019115
O       0.02598223     2.79882123     3.21406079     0.03949627     0.36295274     0.74237392
O      -0.01579277    -0.99137976     3.28533779     0.68983160    -0.35896779    -0.59608992
O       5.63741901     6.86786201     1.73742099     1.47733174    -0.75334945    -0.65235802
O       5.72901198     2.79874899     1.68927502    -0.55590845     0.26391972     0.11482860
O       1.91133198     6.66881199     1.50460401    -0.41068915     0.09619555     0.78045120
O       1.89528399     2.81371598     1.63846601     0.74299252     0.37386399    -0.00158174
