# total energy = -4984.51597361 eV

CRYSTAL
PRIMVEC
        2.86130443     0.00000000     0.00000000
        1.52250541     4.21679663     0.00000000
       -0.00000989    -0.00005940     4.55563956
PRIMCOORD
6 1
Ti      2.19189997     2.10836856     2.27781978     0.00000000     0.00000000     0.00000000
Ti      0.00000000     0.00000000     0.00000000     0.00000000     0.00000000     0.00000000
O       1.72736414     0.82177997     0.88782706    -5.26585597     2.38476077     2.85862349
O       2.65643580     3.39495716     3.66781254     5.26585597    -2.38476077    -2.85862349
O       0.46453167     1.28656458     3.16564775     5.26698546    -2.38784584     2.86285861
O       1.05796393     2.93017253     1.38999186    -5.26698546     2.38784584    -2.86285861
