# total energy = -19518.19425455 eV

CRYSTAL
PRIMVEC
        5.93400000     0.00000000     0.00000000
        0.00000000     9.29699974     0.00000000
        0.00000000     0.00000000     4.64899994
PRIMCOORD
23 1
Ti      4.46159299     6.97244098     2.32274998     0.32687012     0.53888722    -0.87261525
Ti      4.48240198     2.36613400     2.34716199    -0.41319469    -0.84726468    -0.00993423
Ti      1.46236101     6.98926199     2.31956502    -0.20409630     0.84696412    -0.64390911
Ti      1.43354498     2.29545402     2.26021600     0.53203780    -0.55853972     0.38820381
Ti      2.94526500     4.50088403     0.02395998     0.08075658    -0.14432199     1.01697992
Ti      2.97315100     0.04989999     0.01066800    -0.02325229     0.31638105    -0.21060505
Ti      0.01498101     4.67914199     4.59933602    -0.13123995    -0.00930123     0.62751293
Ti      5.91592998     0.00699302     4.61508900     0.16376725     0.23493747     0.18677297
O       4.37399399     5.55512200     0.93620298     0.02724368     0.42269749     0.18539100
O       4.48884699     0.98078802     0.90835000     0.03340661    -0.60791469     0.26487489
O       1.49349600     5.51554097     0.92649300     0.50666820     0.40277117     0.10272615
O       1.43843400     0.95661102     0.86025102     0.36003248    -0.00601947     0.88040930
O       4.48658301     8.41830097     3.73537997    -0.42055936    -0.81091595    -0.15045253
O       4.46789199     3.66536400     3.84446902    -0.24078699     0.59603387    -0.89998440
O       1.55099000     8.47966098     3.69087902    -0.55433879    -1.07381958     0.12917870
O       1.48286599     3.71046800     3.75516099     0.17797928     0.45005378    -0.35067520
O       2.95905700     1.42078101     3.30728002     0.20419889     0.46512096    -0.79005864
O       0.06952997     6.01457301     3.27002700    -0.58288679     0.58947061    -0.35659954
O       5.91082400     1.45853998     3.33558201     0.30419401     0.28600217    -1.27697151
O       2.91618200     7.94322898     1.47640903     0.74234589    -0.96761601     0.34696227
O       2.99799598     3.15068801     1.34836401    -0.43461841     0.30830392     0.71999554
O       0.02252999     7.83327499     1.41807798    -0.20048184     0.12588974    -0.08244400
O       0.03880901     3.30045999     1.41387398    -0.25404566    -0.55780001     0.79524199
