# total energy = -19961.40115535 eV

CRYSTAL
PRIMVEC
        7.60600008     0.00000000     0.00000000
        0.00000000     7.60600008     0.00000000
       -1.89786986    -1.89786986     4.85670466
PRIMCOORD
24 1
Ti      3.79942302     6.71364399     1.31323399    -0.75575189     0.03317419    -0.51365672
Ti      3.78089599     2.93031500     1.18003902     0.16370606    -0.23153667     1.28098115
Ti     -0.02049398     6.55153699     1.19556302     0.67380643    -1.32582018    -0.74578089
Ti      0.06838399     2.69758502     1.21116401    -0.41544183     2.05630916    -0.23288264
Ti      5.72482423     2.83209923     3.53623581    -0.05597011    -0.85889558     0.63407670
Ti      5.71734722    -1.03704279     3.62296283     0.15071478     0.73480176    -0.15112950
Ti      1.92119224     2.93556222     3.73234779    -0.25979387     0.98050624    -1.30322146
Ti      1.85528321    -0.87361078     3.71410684    -0.10911123    -0.94322471    -0.77391519
O       3.78088498     4.78921900     0.79568801     0.09039154     0.14846378     0.28321663
O       3.73965398     0.99915301     0.85058200    -0.01752439    -0.09419626     0.15403562
O       0.06322800     4.60593899     0.64934298    -0.36670681     0.46428150     0.41811501
O       0.16917802     0.85632098     0.70904798    -0.41005871     0.56652068     0.39726001
O       5.73066523     4.65716822     4.10272784    -0.35356744     1.39816719    -0.68850389
O       5.83004620     0.93207323     3.79524384    -0.47027345    -1.17927341     0.90547088
O       1.75398821     4.82231624     4.20564180     0.37395835     0.09539825    -0.44150306
O       1.79443021     1.02776620     4.07910880    -0.04231189    -0.33471225    -0.45292647
O       3.77387820     3.06761422     3.17240280    -0.31927457    -0.48685373     0.27962326
O       3.75126021    -0.88142679     3.29338780     0.32195623    -0.12107998     0.11137920
O      -0.03794180     3.06854023     3.15013084     0.84706799    -0.83330204    -0.27161324
O      -0.04317176    -0.99374677     3.08385779     0.25303135     0.11393514     1.77410221
O       5.68991700     6.43546101     1.61568001    -0.64378596     0.47222261    -0.10882635
O       5.69948198     2.77517103     1.52177200    -0.17149727    -0.01430665    -0.06651909
O       1.85901899     6.56041902     1.72839302     0.81353308     0.11034048    -0.25446629
O       1.85742998     2.97946498     1.67980698     0.70290361    -0.75091898    -0.23331561
