# total energy = -19922.34770036 eV

CRYSTAL
PRIMVEC
        7.58118354     0.00000000     0.00000000
        0.00002538     3.88491606     0.00000000
        0.00000000     0.00000000    11.45396363
PRIMCOORD
24 1
Ti      2.74782956     2.30219773     4.24933881     0.05947915     0.11213074     2.03600721
Ti      4.83337953     1.58271850     7.20462493    -0.05947915    -0.11213074    -2.03600721
Ti      6.53829156     1.58271988     1.47759730     0.06002988    -0.11221018    -2.03593548
Ti      1.04291758     2.30219652     9.97636662    -0.06002988     0.11221018     2.03593548
Ti      2.74781693     0.35973976     1.47764323     0.05947915     0.11213074    -2.03600721
Ti      4.83339221     3.52517658     9.97632069    -0.05947915    -0.11213074     2.03600721
Ti      1.04290490     0.35973827     7.20457900    -0.06002988     0.11221018    -2.03593548
Ti      6.53830419     3.52517808     4.24938475     0.06002988    -0.11221018     2.03593548
O       2.39950148     1.36794504     5.84486998     2.27889299     0.52043261    -0.91337574
O       5.18170766     2.51697119     5.60909377    -2.27889299    -0.52043261     0.91337574
O       1.39115268     1.36796067     0.11792497    -2.27947663     0.52086610    -0.91516523
O       6.19005652     2.51695555    11.33603844     2.27947663    -0.52086610     0.91516523
O       5.18169497     0.57451316     0.11788782    -2.27889299    -0.52043261    -0.91337574
O       2.39951411     3.31040307    11.33607564     2.27889299     0.52043261     0.91337574
O       6.19004389     0.57449753     5.84490713     2.27947663    -0.52086610    -0.91516523
O       1.39116514     3.31041876     5.60905662    -2.27947663     0.52086610     0.91516523
O       0.27545748     2.36302621     3.09400132    -1.39023713     0.44480435     0.46045698
O       7.30575161     1.52189008     8.35996243     1.39023713    -0.44480435    -0.46045698
O       4.06605873     1.52185381     2.63301696    -1.38925934    -0.44495014    -0.46028806
O       3.51515035     2.36306247     8.82094662     1.38925934     0.44495014     0.46028806
O       0.27544485     0.42056812     2.63298038    -1.39023713     0.44480435    -0.46045698
O       7.30576430     3.46434811     8.82098319     1.39023713    -0.44480435     0.46045698
O       3.51513772     0.42060439     8.35999894     1.38925934     0.44495014    -0.46028806
O       4.06607142     3.46431184     3.09396475    -1.38925934    -0.44495014     0.46028806
