# total energy = -19517.28475948 eV

CRYSTAL
PRIMVEC
        5.17600016     0.00000000     0.00000000
        0.00000000     5.50899976     0.00000000
        0.00000000     0.00000000     9.26300011
PRIMCOORD
23 1
Ti      1.91209701     3.23947702     3.37601602     0.33565301    -1.36035242     3.22881569
Ti      3.27694801     2.25500402     5.99776999     0.33817347     0.53062395    -3.35504353
Ti      4.41987800     2.07437403     1.41450698    -0.01897089    -0.29191776     0.08500816
Ti      0.86676402     3.37390201     7.76935599    -0.01995485     0.96356138    -0.30834146
Ti      2.05194199     0.19065701     1.37713500    -0.55522891     0.65652552    -0.91502330
Ti      3.22660499     5.20335598     7.92315998     0.28393474     0.50123855    -0.17123245
Ti      0.72143698     0.59493297     5.89375798    -0.84212607    -0.46583984    -3.38945930
Ti      4.51658397     4.88375297     3.33238499     0.71020503     0.23723372     3.91452581
O       1.59826399     1.92510900     4.75899600     0.12662225    -0.27132322     0.82732191
O       3.45914998     3.52327203     4.43152699     1.28638201    -0.10429761     0.24807658
O       5.03205998     2.93004401     9.17748199    -0.49270068    -0.20394718     1.41438031
O       3.42775903     0.85016400     0.20619000     0.45607582    -0.22685751    -0.64680443
O       1.87694001     4.56137401     9.07277200    -0.21987645    -0.57676036     0.05065075
O       4.17260998     0.65405599     4.92647398     0.12797259     0.52597540    -0.22540561
O       1.02270499     4.79376702     4.43802999    -0.34564561    -0.39762768    -0.22954740
O       0.23005600     3.29825199     2.60166201    -1.00076474    -0.01664790    -1.27313311
O       4.98865099     2.08463800     6.85499702    -0.77239644    -0.07968829    -0.62663669
O       2.75656499     1.69772101     2.28123201    -0.47459728     1.60190765     0.78875432
O       2.49546698     3.87294801     6.69947601    -0.02405654    -0.61296665     1.19861763
O       0.25395200     0.63251800     2.11710498     0.35690165    -0.13684419    -1.01213005
O       5.02165900     4.82658299     7.17744700    -0.08508478    -0.04858050     0.57476493
O       2.22038001     1.08451401     7.10925902     0.13213007    -0.03330891     0.50887421
O       2.93469003     4.41957700     2.25942699     0.69735234    -0.19010641    -0.68703347
