# total energy = -19938.44020776 eV

CRYSTAL
PRIMVEC
        4.89108626     0.00000000     0.00000000
        0.00002434     4.70982379     0.00000000
        0.00000000     0.00000000     8.35800795
PRIMCOORD
24 1
Ti      1.77279797     2.79103717     3.10076141    -0.65065029     1.91231114    -2.90550963
Ti      3.11831263     1.91878652     5.25724682     0.65065029    -1.91231114     2.90550963
Ti      4.21825586     1.91878814     1.07820932    -0.64526923    -1.91302667     2.90607502
Ti      0.67285479     2.79103579     7.27979906     0.64526923     1.91302667    -2.90607502
Ti      1.77278585     0.43612537     1.07824285    -0.65062612     1.91422070     2.90446010
Ti      3.11832480     4.27369846     7.27976553     0.65062612    -1.91422070    -2.90446010
Ti      0.67284262     0.43612366     5.25721334     0.64551348     1.91311126     2.90741687
Ti      4.21826799     4.27370023     3.10079494    -0.64551348    -1.91311126    -2.90741687
O       1.54806827     1.65840896     4.26502759    -1.36641328    -2.60862244     1.10818315
O       3.34304238     3.05141473     4.09298064     1.36641328     2.60862244    -1.10818315
O       0.89752067     1.65842801     0.08605038     1.36649864    -2.61080762     1.11055628
O       3.99359003     3.05139573     8.27195766    -1.36649864     2.61080762    -1.11055628
O       3.34303021     0.69650279     0.08602328     1.36670382     2.60993524     1.10953144
O       1.54808044     4.01332091     8.27198476    -1.36670382    -2.60993524    -1.10953144
O       3.99357786     0.69648379     4.26505473    -1.36590857     2.60938271     1.10928924
O       0.89753269     4.01333995     4.09295355     1.36590857    -2.60938271    -1.10928924
O       0.17771936     2.86478183     2.25770652     0.87975778    -0.13426357     0.19216792
O       4.71339128     1.84504191     6.10030172    -0.87975778     0.13426357    -0.19216792
O       2.62326683     1.84499808     1.92132418     0.88053425     0.13260907    -0.19241192
O       2.26784378     2.86482567     6.43668396    -0.88053425    -0.13260907     0.19241192
O       0.17770719     0.50986989     1.92129746     0.88040776    -0.13301504    -0.19249162
O       4.71340341     4.19995385     6.43671063    -0.88040776     0.13301504     0.19249162
O       2.26783165     0.50991372     6.10032839    -0.87998249    -0.13395324    -0.19198434
O       2.62327900     4.19990997     2.25767985     0.87998249     0.13395324     0.19198434
