# total energy = -19959.66106113 eV

CRYSTAL
PRIMVEC
        7.60600008     0.00000000     0.00000000
        0.00000000     7.60600008     0.00000000
       -1.89786986    -1.89786986     4.85670466
PRIMCOORD
24 1
Ti      3.69653402     6.73828100     1.31273403     3.09034785    -0.58943719    -1.03909733
Ti      3.84956801     2.92602099     1.19317098    -0.52237637     0.87298549     0.16607070
Ti      0.14122402     6.49854301     1.17366101    -2.64870184     1.80158268     0.11688034
Ti      0.00810901     2.80797800     1.21234900     1.48346254    -1.36627213    -0.76078277
Ti      5.74768320     2.64512323     3.56549979    -0.94276063     0.83165576     0.35896033
Ti      5.60861823    -1.07540179     3.59648582     1.34955944    -0.71804999     0.32810554
Ti      1.91069125     2.99066322     3.58563080     1.39083440    -0.20708444     0.11653169
Ti      1.81700121    -0.82808879     3.65112284    -0.76796617     0.30440819     1.68291928
O       3.66753199     4.89977101     0.94402602     0.09015294    -0.32220974    -1.13601407
O       3.68551798     1.15525998     1.01305100     0.55128535    -2.35461509    -1.60079719
O       0.09587401     4.66472900     0.80706500     0.60477742    -0.00944212    -0.35505482
O       0.02786801     0.81771702     0.78617700     0.43110448    -0.47960965    -0.52965310
O       5.58896024     4.54560522     4.00310080     1.23499104     1.15930750     0.45879142
O       5.52743921     0.82316924     4.15996179     0.86882982     1.41056145    -1.41138241
O       1.83216521     4.85197720     3.99020279    -0.06675255     0.63483132     1.09760075
O       1.91631021     1.02691322     3.92572784     0.26326923     0.28575483     1.99975336
O       3.85294723     2.94742521     3.35196581     0.45771078    -0.68287497    -1.31310812
O       3.84531925    -0.80373176     3.24095983    -1.35965925    -0.42767386     0.16518495
O       0.14464123     2.77068921     3.12086183    -2.57879454    -0.04258648     1.24090895
O      -0.06314275    -0.76078877     3.12082479     1.04219345    -0.71554316     0.92958706
O       5.72239599     6.45752903     1.66197699    -0.44187869     0.41733365    -0.36235676
O       5.82611902     2.72347898     1.48733500    -2.06867772     0.33841078     1.77889989
O       1.95269099     6.84064902     1.83953702    -1.35274452    -0.60092102    -2.21989386
O       1.99103999     2.88159201     1.62328598    -0.10820646     0.45948844     0.28794618
