# total energy = -4988.08929795 eV

CRYSTAL
PRIMVEC
        3.03000366     0.00000000     0.00000000
        1.39292720     4.53862250     0.00000000
       -0.00000928    -0.00006222     4.80310582
PRIMCOORD
6 1
Ti      2.21146085     2.26928019     2.40155291     0.00000000     0.00000000     0.00000000
Ti      0.00000000     0.00000000     0.00000000     0.00000000     0.00000000     0.00000000
O       1.78646103     0.88449865     0.93605456    -1.50501199     0.77757182     0.68653673
O       2.63646073     3.65406172     3.86705120     1.50501199    -0.77757182    -0.68653673
O       0.42499602     1.38475635     3.33760854     1.50470552    -0.77803950     0.68673805
O       0.96792210     3.15380379     1.46549728    -1.50470552     0.77803950    -0.68673805
