# total energy = -4983.81739788 eV

CRYSTAL
PRIMVEC
        4.04969919     0.00000000     0.00000000
        0.00000000     2.71940204     0.00000000
        0.00000000    -0.00008715     5.39563937
PRIMCOORD
6 1
Ti      2.02484960     1.35965739     2.69781958     0.00000000     0.00000000     0.00000000
Ti      0.00000000     0.00000000     0.00000000     0.00000000     0.00000000     0.00000000
O       2.02484960     0.52995441     1.05153063     0.00000000    -1.12806576     0.60357029
O       2.02484960     2.18936042     4.34410854     0.00000000     1.12806576    -0.60357029
O       0.00000000     0.82966842     3.74935124    -0.00000000     1.12780608     0.60300028
O       0.00000000     1.88964637     1.64628787    -0.00000000    -1.12780608    -0.60300028
