# total energy = -4980.66998291 eV

CRYSTAL
PRIMVEC
        3.60467740     0.00000000     0.00000000
        0.00000000     5.64798907     0.00000000
        0.00000000    -0.00007330     5.64798907
PRIMCOORD
6 1
Ti      1.80233863     2.82395782     2.82399447     0.00000000     0.00000000     0.00000000
Ti      0.00000000     0.00000000     0.00000000     0.00000000     0.00000000     0.00000000
O       1.80233863     1.10069558     1.10070987     0.00000000    -0.95703514    -0.95703514
O       1.80233863     4.54722006     4.54727907    -0.00000000     0.95703514     0.95703514
O       0.00000000     1.72323252     3.92470548     0.00000000     0.95651861    -0.95651861
O       0.00000000     3.92468312     1.72328346     0.00000000    -0.95651861     0.95651861
