# total energy = -19519.10274796 eV

CRYSTAL
PRIMVEC
        7.60600008     0.00000000     0.00000000
        0.00000000     7.60600008     0.00000000
       -1.89786986    -1.89786986     4.85670466
PRIMCOORD
23 1
Ti      3.80389700     6.67988698     1.20668902    -0.00139508    -0.88318326    -0.83401321
Ti      3.87380301     2.84145598     1.24340599    -0.44219391     0.59506919     0.41194873
Ti     -0.01505800     6.71368098     1.25504497    -0.22590544    -0.25332138     0.25075824
Ti     -0.00952202     2.88179601     1.19408502     0.96579901     0.42326184    -1.24958308
Ti      5.66825825     2.92838022     3.62986579    -0.32283683    -0.93826814     0.98441252
Ti      5.60335323    -0.97026279     3.63466183     1.60425944     0.89220295     0.33960969
Ti      1.95162025     2.71928520     3.59359079     0.51154250     1.02844679     0.36074802
Ti      1.91447423    -0.96523878     3.62364383    -1.50443761    -1.08611331    -0.53077899
O       3.92199100     4.71232701     0.75977100    -0.47898436    -0.01351655    -0.26133011
O       3.91972998     0.90482399     0.95029201    -0.20931076     0.21989008    -0.95531199
O       0.07974299     4.79545102     0.74197001    -0.02854414    -0.39312490     0.18947238
O       0.01376200     0.96866102     0.82298403    -0.12006748    -0.73659793    -0.38033855
O       5.50410720     4.74968825     4.04870783     0.73651951     0.79450820     0.04356376
O       5.58630922     0.96753821     4.09952584     0.05262459     0.06588223    -0.83813212
O       1.86380323     4.78718723     3.98359882    -0.33594715    -0.58549209     0.85698011
O       1.91250125     0.89368121     4.05034283     0.05612103     0.70482577     0.01785992
O       3.81758422     2.93552623     3.15272582    -0.48362211    -0.27184155     0.09844809
O       3.78384224    -0.96029780     3.14352681    -0.44049518     0.24316809     0.38633513
O      -0.00974480    -0.73457576     3.29886880    -0.27277769    -0.78861985    -0.46262545
O       5.72655199     6.51350402     1.66534700    -0.65914985     0.23346397     0.07530661
O       5.80053901     2.80874002     1.64744800    -0.36274500     0.15628302     0.35259453
O       1.80074298     6.49525000     1.61461102     1.88907427     0.61654485     0.47675469
O       1.86152502     2.77921002     1.61170901     0.07247248    -0.02346801     0.66732107
