# total energy = -19067.78783508 eV

CRYSTAL
PRIMVEC
        5.93400000     0.00000000     0.00000000
        0.00000000     9.29699974     0.00000000
        0.00000000     0.00000000     4.64899994
PRIMCOORD
22 1
Ti      4.45175902     6.41717201     2.53401299    -1.94871643     2.71558911    -0.15956195
Ti      4.43790701     2.72681698     1.87820299    -1.12190719     0.14786034    -0.38849512
Ti      1.53739400     7.76968699     2.53342598    -0.30464164    -5.45195763    -5.81997441
Ti      1.55601501     2.42265002     2.03327098    -1.60729900    -0.38918417    -0.04283485
Ti      2.91686300     4.47814703     4.43964599    -1.07131404     0.57782685    -0.96942221
Ti      3.09866099     0.21172699     0.14973499     3.23620478    -0.96166853     1.18614032
Ti      5.90621698     4.44257600     4.57410702    -0.56265734     0.47666625    -1.07446235
Ti      0.09871902     9.20288901     0.38140900    -4.36386457    -0.91272705     0.78764720
O       4.08407201     5.15991100     1.27064999     0.76088690    -1.66988559    -2.42334688
O       4.48602902     0.92072799     1.31426298     0.63038151    -1.16888281    -1.14197286
O       1.61471701     0.39455001     1.34355500    -0.53962256     1.78657360     2.13653404
O       4.55504802     8.26325299     4.20437998    -0.50423414     1.93231561    -0.93963674
O       4.40022700     3.95955602     3.41529801     0.94361398     0.59796220     0.34979203
O       1.61443099     8.42168702     4.01929500    -0.00721992     3.26614581     4.48710299
O       1.23199502     3.48050699     3.49438202     0.27790653     2.59330663    -1.05073620
O       2.54036000     5.98563400     3.24748098     1.57081889     0.02237555     1.01717044
O       3.05017899     2.14010202     2.96033798     1.29847031    -3.30831526     2.10961509
O       0.01618298     6.10772403     3.40906298     0.77131992    -0.71302451     0.93274669
O       3.02964400     7.83177499     1.53384598     1.10117715    -0.29065998     0.16775297
O       2.76717801     2.62689000     0.73856999     2.11486015     2.09223674    -2.23406450
O       5.74567598     7.96239101     1.75065699     0.57300938    -0.75107171    -0.26921260
O       0.10608400     2.70350698     0.54461298    -1.24717242    -0.59148173     3.33921864
