# total energy = -19069.30736461 eV

CRYSTAL
PRIMVEC
        5.17600016     0.00000000     0.00000000
        0.00000000     5.50899976     0.00000000
        0.00000000     0.00000000     9.26300011
PRIMCOORD
22 1
Ti      1.76615199     3.29474000     3.22986801    -0.78168250    -0.13922863     1.48811675
Ti      3.91752802     2.47953499     6.19257500     0.66147027    -0.27754863     2.74517455
Ti      4.21899300     2.29516900     1.50249402    -0.01765963     0.42676523    -2.11830723
Ti      1.65540000     2.07556901     8.12443599    -1.09038263    -0.39885512     1.31824390
Ti      1.56140098     0.77035698     1.42839402     0.69473290    -1.78146842    -4.87362529
Ti      3.20223998     5.25358998     7.71191898    -0.06465941     1.46809428     0.89762104
Ti      0.56368299     0.01369098     5.85121202     0.06535181     0.83624210     1.25590466
Ti      4.20210002     5.09293002     3.27489099    -0.98484678     1.73684896     1.82223482
O       2.95307899     2.89656101     4.86409901    -2.53670454     2.98860154    -3.51729691
O       0.96550199     2.40965099     0.61202799    -2.50962670     0.69357642     0.16919845
O       4.85560302     4.30039798     7.01115702     0.96754736     0.57462660    -2.64402834
O       3.08364802     1.56107702     0.09963302     2.47613216    -0.44190981     0.94442053
O       1.56318499     0.07402100     8.62490299    -0.00914156    -1.16528172     1.63804426
O       4.58917598     1.07763999     4.78048901    -0.23558796    -0.15154962     1.27747648
O       0.69953502     4.77522999     4.14469900     2.24961968    -0.73845093     3.10522580
O       5.05760299     3.73313901     2.51501902    -0.36531327    -3.02208195    -2.16886773
O       4.99808997     1.50872800     7.51427700    -0.41916376    -0.62663258    -1.63198185
O       2.57624002     1.67404302     2.49075699     2.15927828     1.76607650     3.27079796
O       3.01027702     3.43124800     7.88917802    -2.00612404    -0.98061422    -0.94115189
O       5.04434499     0.76757499     2.10939699    -1.04083308    -0.75087682     0.32833411
O       2.08252801     1.09958598     6.50712802     2.09399667    -0.36748688    -1.28664735
O       2.50327901     4.66887198     2.30007998     0.69359647     0.35115343    -1.07888697
