# total energy = -19516.59596993 eV

CRYSTAL
PRIMVEC
        5.17600016     0.00000000     0.00000000
        0.00000000     5.50899976     0.00000000
        0.00000000     0.00000000     9.26300011
PRIMCOORD
23 1
Ti      1.83115501     3.19870201     3.41998700    -0.77518661     1.03571093     1.76747724
Ti      3.29761301     2.26984999     5.83015997     0.90402746     1.40989297    -2.28672354
Ti      4.30102299     2.00820099     1.51265402     1.79354387     0.39833062    -1.70205344
Ti      0.90287101     3.19649200     7.71972303     0.03983900     1.62489101     3.25614164
Ti      2.03135001     0.22047101     1.35757100    -0.09901296     0.29039927    -2.38156772
Ti      3.32073102     5.30219401     7.79879502     0.84913439    -1.52199748     3.44013602
Ti      0.67937199     0.63251800     6.00258698    -0.59645425    -1.81726719    -2.88180122
Ti      4.46261202     4.97912098     3.31195700     0.88947141    -0.40587244     2.18915246
O       1.67634600     1.93238302     4.94952198    -0.64109967     0.75808542    -1.37061987
O       3.59936200     3.62599300     4.48186201    -1.38109326    -0.91489680     0.29486965
O       0.20082901     2.84991498     0.13991298     0.19366379    -0.64220704    -1.54792166
O       3.53787600     0.86474400     0.16120798    -0.07662687     0.56465406    -0.13031975
O       1.86470903     4.77783402     9.05079998     0.28716842    -0.61229790    -1.16899748
O       4.22532598     0.83349200     5.00702302    -0.22596406    -0.52500455    -1.60298520
O       0.84073898     4.72972900     4.42547002     0.98383633     0.45403719     0.28562473
O       0.06230099     3.39611200     2.54271002     1.09234952    -1.21680408     0.18664750
O       4.92198402     1.97939401     6.94139399    -0.30598016     0.13544499     0.60309001
O       2.55631099     1.86394198     2.30988002     0.20977073     0.03171123    -0.02504975
O       2.73414598     3.67661399     6.98245799    -1.09844664    -0.26355051     0.89471595
O       0.24466500     0.48401800     1.80029101    -0.63022236     0.37720951     1.33960335
O       5.16214498     4.75372899     7.19016498    -0.48218075     0.09104922     0.10535510
O       2.32529501     0.97114799     7.01177499    -1.15769825     1.26085609    -0.20613339
O       2.85811702     4.43915100     2.24549899     0.22716091    -0.51237451     0.94135886
