# total energy = -19517.73136775 eV

CRYSTAL
PRIMVEC
        5.93400000     0.00000000     0.00000000
        0.00000000     9.29699974     0.00000000
        0.00000000     0.00000000     4.64899994
PRIMCOORD
23 1
Ti      4.49865799     7.03775601     2.26633202     0.40780822     1.10273113     0.01481162
Ti      4.40362098     2.26332798     2.32869402     1.05562747     0.25420121     0.00554844
Ti      1.40860602     7.03535000     2.20626500    -0.49542811     0.67852106    -0.35996280
Ti      1.46744000     2.29594298     2.37968300    -0.91217992     0.45736831    -0.29841443
Ti      2.97519500     4.58969701     0.21444501     0.63487323    -0.49706616    -0.38920937
Ti      2.95096598     9.23016900     4.60238700     0.30140179    -0.28198096    -0.06171421
Ti      0.02350701     4.64072499     0.03168999    -0.51721436    -1.19499931    -0.30758916
Ti      0.00916699     0.07640002     4.61182598    -0.37189864    -0.36166539     0.04604925
O       4.50267100     5.61433397     1.03001002    -0.73986555    -0.84555567    -1.39562360
O       4.42923200     0.96227999     0.82327100    -0.25634088    -0.06274651     0.48052882
O       1.48041902     5.49314302     0.96313599     0.52881081     0.95442393    -0.26543668
O       1.49918698     0.88129798     0.85447298     0.47354467     0.08611193     0.28258337
O       4.52625400     8.35693599     3.72934100    -1.08225563     0.08233061    -0.06594805
O       4.49915901     3.73147200     3.83971103    -0.52278980     0.51796384    -0.83367485
O       1.45807801     8.32478900     3.51253502     0.74246262     1.33308200     2.30060596
O       1.50139799     3.58822901     3.92152199     0.16205669     1.24581256    -1.18580376
O       2.90722599     1.45372097     3.26573299     0.91352898    -0.58011822    -0.33769473
O       5.93369398     6.20176099     3.08371401     0.28912143    -1.90840846     1.84730411
O       0.00737202     1.38866498     3.22280301    -0.15702838     0.42764455    -0.74758632
O       2.96631101     7.85964702     1.41093498     0.14667532     0.20277990    -0.80787588
O       3.02611698     3.26432898     1.39371301    -0.33280526    -0.90946380     1.44555238
O       5.90312600     8.00729101     1.35723497     0.12622836    -0.59704920    -0.14103432
O       0.04584898     3.23913200     1.39209500    -0.39433358    -0.10391657     0.77458445
