# total energy = -19071.83109588 eV

CRYSTAL
PRIMVEC
        5.93400000     0.00000000     0.00000000
        0.00000000     9.29699974     0.00000000
        0.00000000     0.00000000     4.64899994
PRIMCOORD
22 1
Ti      4.50938198     7.03440801     2.40370902    -2.10529358     0.92807963     0.93021827
Ti      4.30724601     2.36428500     2.23301300     1.15913910    -1.65642766     1.20412570
Ti      1.42181402     7.18426502     2.47647597     3.53732298    -0.31556395     1.90186885
Ti      1.59390199     2.33299401     2.10362202    -0.45848366     0.31619207     2.32924884
Ti      2.98658199     4.63355400     4.48643198    -1.61182260     0.56009729    -0.77979685
Ti      2.93909802     0.02175199     0.16830303     1.76360233     0.25436601    -1.28562893
Ti      5.74783899     4.60103802     4.31429301     1.61830204    -1.21436693     0.10437294
Ti      0.03416300     0.07971701     0.25698202    -1.97099659    -0.87327243    -0.24194141
O       4.42214600     5.29078400     0.76608699     0.93547078     0.81156927     2.44883372
O       4.48099802     0.57404502     1.43183098     1.04832657     0.95636511    -1.73392099
O       1.52753803     0.55070101     1.25746702    -0.44633648     2.08927818     0.57788367
O       4.68921101     8.36195101     3.81535601    -0.43503416     0.82068898     0.20652317
O       4.28069300     4.14094798     3.25617103     0.69577754    -2.80939122    -0.71340632
O       1.51659797     8.44481799     3.86487600    -0.63091193     0.29149841    -0.30126038
O       1.54029199     3.84890500     3.47543297    -0.70461391    -0.44251144     0.01523482
O       2.99456400     6.22938902     3.44653799    -0.58390237    -0.06471803    -0.68861342
O       3.05796700     1.42085499     3.45232502     0.28001458     0.79444777    -0.92225376
O       0.01484998     6.15572501     3.40065398     0.77034470    -0.21440283    -0.61867913
O       2.97422698     7.93279402     1.39365100     0.23220181    -3.22200638     1.41153590
O       3.02667199     2.65546700     1.00890199    -0.03842104     2.59422991    -0.92718205
O       0.10671198     7.87778700     1.57092998    -1.68019777    -0.26972348    -2.06036277
O       0.06211202     2.84100798     1.34845799    -1.37448861     0.66557221    -0.85679936
