# total energy = -4983.73311412 eV

CRYSTAL
PRIMVEC
        4.44968341     0.00000000     0.00000000
       -0.00000991     4.44968341     0.00000000
       -2.22487660    -2.22488155     5.67878565
PRIMCOORD
6 1
Ti     -0.00019595     3.33743109     1.41969626    -0.00211448     0.00211448     0.00000000
Ti      2.22499273    -1.11262936     4.25908902     0.00211448    -0.00211448     0.00000000
O       0.00004445     1.11241329     0.92502772    -0.00025120    -0.00259784    -1.27315574
O       2.22475221     1.11238831     4.75375763     0.00025120     0.00259784     1.27315574
O      -0.00002513    -1.11239398     3.76442048    -0.00259784    -0.00025120    -1.27315574
O       2.22482172     3.33719552     1.91436486     0.00259784     0.00025120     1.27315574
