# total energy = -19961.53593013 eV

CRYSTAL
PRIMVEC
        7.60600008     0.00000000     0.00000000
        0.00000000     7.60600008     0.00000000
       -1.89786986    -1.89786986     4.85670466
PRIMCOORD
24 1
Ti      3.81605802     6.57734100     1.24497801     0.84362374     0.19191235    -0.85260255
Ti      3.77678799     2.80641000     1.18247900     1.29218551    -0.25571250     0.29759630
Ti      0.01085401     6.78747501     1.23075098    -1.01115020    -1.86244380    -0.65395982
Ti      0.04329601     2.84873000     1.23515098    -1.32913664     2.56370062    -0.03258849
Ti      5.67653521     2.88743820     3.63263481    -0.44743177     0.64606293     0.57432064
Ti      5.69994723    -0.86124778     3.65716482    -0.06346513    -0.37879100    -0.97514960
Ti      1.89448324     2.74477821     3.60105680     0.74133571     1.08439453     0.83921430
Ti      1.91583120    -1.03906578     3.58211082     0.04732143    -0.85996234     1.20337443
O       3.87593400     4.69837102     0.82113302    -0.66796462    -0.76279980    -0.26029755
O       3.85562503     0.75500899     0.76400802    -0.32779958     2.32690425    -0.46727863
O      -0.04102500     4.81015098     0.75546900     0.48001331    -0.24514732     0.57322972
O      -0.09050698     1.07121001     0.79109702     0.36656694    -1.09420998     0.20531218
O       5.52906124     4.80709022     4.10503780     0.53988404     0.88617217     0.13583220
O       5.64462720     1.03919125     4.02545981     0.74380756    -1.21901574     0.51895654
O       2.05460624     4.64563321     4.02733982    -0.38005033     0.53153335    -0.35302854
O       1.85099820     0.88813622     4.02427180    -0.23961302    -0.28094069     0.73825784
O       3.81813620     2.67262822     3.29889479    -1.36500200     0.41031145    -1.03145858
O       3.82574524    -0.85574878     3.15453079    -0.33065376    -0.24461433     0.71510556
O      -0.00785479     3.04139423     3.19592182     0.07014563    -0.63754383    -0.15472365
O      -0.02573479    -0.91921279     3.27918579     0.59141462    -0.14338971    -0.13992051
O       5.75650898     6.69779301     1.64428400    -0.04758728    -0.10924673     0.40566264
O       5.60287300     2.87062000     1.66343699     0.81300575    -0.18903889    -0.53855118
O       1.91625999     6.66435399     1.65806002    -0.72745020    -0.14483492    -0.43158528
O       1.88577298     2.80953902     1.64152699     0.40800028    -0.21330060    -0.31571796
