# total energy = -19072.84422038 eV

CRYSTAL
PRIMVEC
        5.93400000     0.00000000     0.00000000
        0.00000000     9.29699974     0.00000000
        0.00000000     0.00000000     4.64899994
PRIMCOORD
22 1
Ti      4.49986298     6.91505801     2.42191902    -0.75932315     0.52423296    -0.06905086
Ti      4.33205902     2.25160401     2.21518598     2.22201425     0.50041991    -0.44490797
Ti      1.50152298     7.14490699     2.40072298     0.55935167    -0.14815473    -0.13915047
Ti      1.61287998     2.38231698     2.20915002    -1.98769282     1.82997564    -0.30887599
Ti      2.99879800     4.71649100     4.61809398    -2.76883411    -0.30147918    -1.19017566
Ti      2.99657201     0.05453198     0.13768499     1.02692418    -1.20933116    -0.96566711
Ti      5.76330102     4.58908501     4.56337197     2.18325460    -0.49265954    -0.05265158
Ti      0.04831198     9.14312701     0.00632700    -1.03408573    -0.57531334     0.21263597
O       4.27519501     5.43302203     0.95840001     1.74820913     1.63604111     2.32589714
O       4.52904499     0.93339300     0.73890401     0.01202248     0.09169329     0.50338490
O       1.58216002     0.78639798     0.97266700    -1.46010303     1.10514668     0.06596888
O       4.45438702     8.23045601     3.97778999     0.20352423     0.50450848    -0.96700743
O       4.32428398     4.08841200     3.60092101     0.64455960    -3.10804244    -1.98793708
O       1.53978499     8.29900998     3.78191799    -0.08995908     1.57368413     1.25972686
O       1.44955402     3.90552602     3.57665998    -0.70696159    -0.82367069     0.50093361
O       2.90651203     6.16090301     3.33992200    -0.20832551    -0.51799598    -0.13077073
O       2.97792402     1.39483799     3.06039201    -0.46317721    -1.56534398     2.76645455
O       5.92088397     6.22215998     3.39248899     0.73226768    -1.51198817     0.32529172
O       3.04321999     7.97123700     1.67736001    -0.29702063     0.29662288    -1.61002643
O       3.09743002     2.96835898     1.17685401    -1.48255160     2.02097242    -0.84551273
O       5.92610097     8.06377000     1.50935999     0.15878522    -1.38275393     0.81774532
O       5.83198802     2.92050601     1.33721498     1.76712140     1.55343540    -0.06630569
