# total energy = -4977.45793339 eV

CRYSTAL
PRIMVEC
        4.11645283     0.00000000     0.00000000
        0.00000000     2.14995493     0.00000000
        0.00000000    -0.00011340     5.73321233
PRIMCOORD
6 1
Ti      2.05822622     1.07492072     2.86660617     0.00000000     0.00000000     0.00000000
Ti      0.00000000     0.00000000     0.00000000     0.00000000     0.00000000     0.00000000
O       2.05822622     0.41897244     1.11731866     0.00000000    -1.01976880    -0.82919368
O       2.05822622     1.73086904     4.61589372     0.00000000     1.01976880     0.82919368
O       0.00000000     0.65590373     3.98392599    -0.00000000     1.01943867    -0.83052139
O       0.00000000     1.49393775     1.74928635    -0.00000000    -1.01943867     0.83052139
