# total energy = -4980.21043563 eV

CRYSTAL
PRIMVEC
        5.20555911     0.00000000     0.00000000
       -0.00000788     3.12333547     0.00000000
       -2.60280888    -1.56172471     5.66907840
PRIMCOORD
6 1
Ti     -0.00022313     2.34261262     1.41726922    -0.00506148    -0.00929351    10.46847203
Ti      2.60296532    -0.78100198     4.25180848     0.00506148     0.00929351   -10.46847203
O       0.00005513     0.78082384     0.92344643     0.00359363     0.00406594    -5.05371854
O       2.60268694     0.78078675     4.74563134    -0.00359363    -0.00406594     5.05371854
O      -0.00002144    -0.78083423     3.75798563    -0.00246337    -0.00016918    -2.38078559
O       2.60276345     2.34244476     1.91109208     0.00246337     0.00016918     2.38078559
