# total energy = -19959.51442844 eV

CRYSTAL
PRIMVEC
        7.60600008     0.00000000     0.00000000
        0.00000000     7.60600008     0.00000000
       -1.89786986    -1.89786986     4.85670466
PRIMCOORD
24 1
Ti      3.85612801     6.46025799     1.19659798     1.28267731     1.09703279     0.78562837
Ti      3.86641902     2.66608098     1.13618700    -0.26888350    -0.33878231     3.45255368
Ti      0.00755797     6.73418300     1.16863700    -1.06706709    -0.30917578    -0.92476701
Ti     -0.04192502     2.89058400     1.25414098    -0.34211394     0.69895131    -0.53583892
Ti      5.68121224     2.87282021     3.64720481    -3.34561915     1.18976712    -0.23375039
Ti      5.74488221    -0.73309676     3.71429083    -0.91329243    -1.25779365    -1.72254051
Ti      1.75390423     2.74688121     3.67372082     2.71710375     0.32750724    -0.79784626
Ti      1.89168225    -0.97778377     3.61378282     0.89013373    -0.32485772     0.07458876
O       3.97713698     4.51333901     0.81262702    -0.70988827     3.36310240    -0.19825938
O       3.94919002     0.84592899     0.70406599    -0.85475456    -1.81317193    -0.04303206
O      -0.02325200     4.82104499     0.71881099     0.61274270    -0.53511824     1.43628484
O      -0.06811400     1.12594800     0.74272001     1.15706499    -1.35901699     0.72262912
O       5.44088523     4.84988420     4.11799883     1.44959159     0.48809892    -0.22062027
O       5.42252823     1.05078425     4.04290382     1.35190737     0.02477516     0.87505137
O       2.03762023     4.59126221     4.00118782    -1.07789478     0.80037031     0.80559814
O       1.97051320     0.80647322     4.15828584    -0.53602867     1.43817126    -2.39220515
O       3.86511222     2.89480620     3.21348484    -0.08037837    -0.42279776    -0.04262274
O       3.90527820    -0.71767378     3.18722780    -2.18598511    -1.35084422    -0.88877053
O      -0.06878876     2.84465322     3.22477182     0.98681264     0.15780743     0.09273561
O       0.01145822    -0.62296376     3.11089880    -0.13977525    -0.77348659     1.75112373
O       5.71670601     6.71621002     1.67978401    -0.15421662    -0.61197369    -0.69259271
O       5.69007501     2.59310601     1.57444001     1.48492498     1.03777784     0.67272142
O       1.85309999     6.83329901     1.68109600     1.67576724    -1.08601844    -1.20431005
O       1.99277098     2.82511298     1.76496202    -1.93282855    -0.44032523    -0.77175881
