# total energy = -19907.24661051 eV

CRYSTAL
PRIMVEC
        6.60491469     0.00000000     0.00000000
        3.01093453     6.35215867     0.00000000
        0.00000000     0.00000000    12.14799902
PRIMCOORD
24 1
Ti      4.17824084     3.76428331     4.50682096    -0.10856847    -2.19967676     0.42970297
Ti      5.43760815     2.58787527     7.64117812     0.10856847     2.19967676    -0.42970297
Ti      6.92297067     2.58787742     1.56713006    -0.35391274    -1.29975175     0.36660551
Ti      2.69287845     3.76428140    10.58086923     0.35391274     1.29975175    -0.36660551
Ti      2.67277374     0.58820407     1.56717874    -0.10856847    -2.19967676    -0.42970297
Ti      6.94307530     5.76395470    10.58082054     0.10856847     2.19967676     0.42970297
Ti      1.18741118     0.58820173     7.64112944     0.35391274     1.29975175     0.36660551
Ti      8.42843793     5.76395703     4.50686972    -0.35391274    -1.29975175    -0.36660551
O       3.15069837     2.23670302     6.19903092     1.79724446     2.02395156    -0.84717752
O       6.46515063     4.11545556     5.94896823    -1.79724446    -2.02395156     0.84717752
O       2.27221212     2.23672868     0.12507048     0.00037898    -1.03286832     1.73987927
O       7.34363697     4.11543001    12.02292834    -0.00037898     1.03286832    -1.73987927
O       4.95968349     0.93937620     0.12503101    -1.79724446    -2.02395156    -0.84717752
O       4.65616552     5.41278245    12.02296774     1.79724446     2.02395156     0.84717752
O       5.83816982     0.93935059     6.19907032    -0.00037898     1.03286832     1.73987927
O       3.77767912     5.41280807     5.94892877     0.00037898    -1.03286832    -1.73987927
O       2.07139284     3.86374302     3.28147761     0.64865769     2.99969997     2.81235673
O       7.54445609     2.48841557     8.86652154    -0.64865769    -2.99969997    -2.81235673
O       4.72192757     2.48835646     2.79256057     0.57228484     2.15336912     1.82104620
O       4.89392142     3.86380212     9.35543832    -0.57228484    -2.15336912    -1.82104620
O       0.56592569     0.68766360     2.79252177     0.64865769     2.99969997    -2.81235673
O       9.04992324     5.66449500     9.35547712    -0.64865769    -2.99969997     2.81235673
O       3.38845427     0.68772270     8.86656021    -0.57228484    -2.15336912     1.82104620
O       6.22739472     5.66443588     3.28143881     0.57228484     2.15336912    -1.82104620
