# total energy = -4987.07352021 eV

CRYSTAL
PRIMVEC
        3.24000391     0.00000000     0.00000000
        1.48946671     4.85318050     0.00000000
       -0.00000992    -0.00006653     5.13599434
PRIMCOORD
6 1
Ti      2.36473042     2.42655703     2.56799717     0.00000000     0.00000000     0.00000000
Ti      0.00000000     0.00000000     0.00000000     0.00000000     0.00000000     0.00000000
O       1.91027516     0.94580053     1.00092963     0.44750736    -0.08304409    -0.42166827
O       2.81918573     3.90731352     4.13506465    -0.44750736     0.08304409     0.42166827
O       0.45445119     1.48072957     3.56892794    -0.44774235     0.08320813    -0.42124558
O       1.03500581     3.37238425     1.56706640     0.44774235    -0.08320813     0.42124558
