# total energy = -19076.33357090 eV

CRYSTAL
PRIMVEC
        7.60600008     0.00000000     0.00000000
        0.00000000     7.60600008     0.00000000
       -1.89786986    -1.89786986     4.85670466
PRIMCOORD
22 1
Ti      3.91634801     6.62436702     1.18326102    -0.19613488     0.34883198    -0.59497792
Ti      3.71427199     2.81015001     1.16227301     0.24002902    -0.07570076     0.12631243
Ti      0.14191698     6.69234302     1.11520200    -0.40899376     0.87616132     0.35834712
Ti     -0.07935299     2.90023498     1.14454901    -0.48887874    -0.74935421     0.44789122
Ti      5.67195423     2.82034223     3.61336779    -0.30690087     0.52623765    -0.59885283
Ti      6.15521821    -0.90289080     3.64839181    -0.35312084    -0.63366995     1.87878934
Ti      1.82258424     2.86465125     3.68661682     0.34390214    -1.31265509    -0.69734720
Ti      1.46686923    -1.09929377     3.76619079     0.64194608     1.77774777    -0.99737859
O       3.78432998     4.75675700     0.85704299    -0.20383456     0.42221155    -0.58043472
O       4.05568303     0.92507798     0.66811501    -0.76816003     0.03777980     1.66976963
O      -0.13370298     4.81492400     0.71879199     0.03058071    -0.36779259     0.15769533
O       7.28631400     0.94580300     0.77695698     1.14552613     0.47527811    -0.03728152
O      -1.56818879     4.81390925     4.12111881    -0.04721293    -0.04502286    -1.76505860
O       5.72401723     0.95189425     3.97250282     0.33754509     0.15088190     0.38518354
O       2.14312722     4.74817422     4.05104780    -0.74542093    -0.41411771     0.38993802
O       1.67894024     0.93281021     4.03493182    -0.14889830    -0.40278686     0.31259021
O       3.70593623     2.67968824     3.23206780     0.18812563     0.33166035    -0.33754895
O      -0.02508776     2.87756222     3.18465981    -0.46787924     0.11048626    -0.06469052
O       5.71501503     6.72178702     1.88429001     0.00397878    -0.70801857    -0.69846820
O       5.57601699     3.04897601     1.60907598     0.67787263    -0.45222019     0.50094056
O       2.01667799     6.63582302     1.90407902    -0.27958238     0.21838033    -0.16765039
O       1.76767099     2.87680603     1.54532097     0.80551149    -0.11431849     0.31223231
