# total energy = -19074.65565063 eV

CRYSTAL
PRIMVEC
        7.60600008     0.00000000     0.00000000
        0.00000000     7.60600008     0.00000000
       -1.89786986    -1.89786986     4.85670466
PRIMCOORD
22 1
Ti      3.81384997     6.64453101     1.09871702     1.48734336    -0.18818091    -0.09919243
Ti      3.68917301     2.93805501     1.24912703     0.86002147     0.39542759     0.80014457
Ti      0.05853701     6.73210899     1.20824602    -0.06185922    -0.26522199     0.91291500
Ti     -0.19176399     2.85022101     1.33120898    -0.84313754     0.99552380    -0.37145410
Ti      5.60118022     3.07388920     3.72608079    -1.10712797    -2.83135230    -1.72360495
Ti      5.74202820    -1.01539277     3.63611082     1.41243656    -0.02854080    -0.34363629
Ti      1.70228722     2.77277724     3.58822583     0.99163989     0.64050420     1.18992061
Ti      1.77614322    -0.84266476     3.73346583    -0.08806263    -0.27106662    -0.37353489
O       3.59407398     4.74149902     0.75077800    -0.58714968     0.46351222    -0.03695217
O       3.90269698     0.93566698     0.70030598     0.00506867     1.71044038     2.53636387
O       0.12948602     4.85879899     0.71219299    -0.91333126    -0.78804238     1.23686229
O      -0.19706799     1.04470501     0.70899798    -0.23460965    -0.39992213    -0.01853586
O      -1.48033679     4.71792925     3.87664580    -0.14111222     3.42491123     1.75529921
O      -0.01522178    -0.63661976     3.14976179    -0.24665167     0.25770691     0.31280824
O       1.83394922     4.84921220     4.07599883    -0.26439461    -1.25942707    -1.05917123
O       2.12455024     1.00262325     4.10497779    -0.65969235    -0.58875173     0.10924159
O       3.67203222     2.84817124     3.35455280     0.39286934     0.17291601    -0.76966259
O      -0.15730275     2.36976320     3.18759881    -1.07797474     0.20874563     0.66110234
O       5.64962200     6.45994102     1.75868498    -0.63671979     0.42727817    -1.38511601
O       5.48188498     3.37009400     1.76538097     1.07321820    -1.40046267    -1.10225136
O       2.21601102     6.74529900     1.93788598    -1.43468330    -0.01626095    -1.42785470
O       1.61047100     3.09564601     1.72429100     2.07390914    -0.65973683    -0.80369141
