# total energy = -19960.67549082 eV

CRYSTAL
PRIMVEC
        5.93400000     0.00000000     0.00000000
        0.00000000     9.29699974     0.00000000
        0.00000000     0.00000000     4.64899994
PRIMCOORD
24 1
Ti      4.50326300     6.93826100     2.31470998    -1.37404638     0.86182433     0.24687896
Ti      4.41641199     2.30639401     2.26755801     0.33996013    -0.85523767     0.64087187
Ti      1.44874200     6.97831802     2.34754998     1.32593485     0.41646050    -0.31834254
Ti      1.47927500     2.35239402     2.35475499    -0.44692037    -0.43719080     0.29671724
Ti      3.01264202     4.65625999     4.62596899     0.58500820     0.59160103    -0.32555372
Ti      2.90471102     0.09535499     0.01298199     1.42972004    -1.53987642     0.09576129
Ti      0.03452601     4.57066901     4.63814599    -0.39333753     0.58645368     0.03779343
Ti      0.01656499     0.02036798     0.01675301    -1.81544505    -0.61726425    -0.92688303
O       4.55057102     5.41816903     0.90354899    -0.81920468     0.65336126     0.36624273
O       4.41318703     0.78579398     0.99815799     0.22735117     0.55748479    -0.12609517
O       1.41007200     5.63574502     0.88193199     0.35304525    -1.46702393    -0.11748789
O       1.44085498     0.89666799     0.92110502     0.47368634     0.61016286     0.69651930
O       4.51262298     8.42376399     3.76648099    -0.11428275    -0.18615282    -0.36559198
O       4.39743099     3.69815003     3.63936298     0.02187341     1.13294417     1.20532307
O       1.54059500     8.44935997     3.66432401    -0.61343767    -0.00476297     0.56625714
O       1.51673403     3.83575400     3.63778799     0.06011961    -0.62653334     0.07255296
O       3.05673301     6.13583202     3.29718200    -0.61166798    -0.52195805     0.00165476
O       2.93013000     1.49173903     3.33685600    -0.70227164     0.11916271    -0.72719000
O       5.90920699     6.03641803     3.29347998     0.28184006     0.25021368    -0.71213902
O       5.85013800     1.45495200     3.26357501     1.43055744    -0.11137252     0.40928018
O       2.96687099     7.79304397     1.27676400    -0.05857438    -0.33461737     1.22256155
O       3.03093398     3.17996199     1.37860903    -1.78706623     0.42499220    -0.49687538
O       0.00127299     7.94036602     1.55531898     0.38161587    -0.34514862    -0.79756164
O       5.82326501     3.12156601     1.40365102     1.82554229     0.84247831    -0.94469410
