# total energy = -19518.84351547 eV

CRYSTAL
PRIMVEC
        7.60600008     0.00000000     0.00000000
        0.00000000     7.60600008     0.00000000
       -1.89786986    -1.89786986     4.85670466
PRIMCOORD
23 1
Ti      3.75896202     6.66954400     1.22198701     0.14791408     0.13750136     1.10567607
Ti      3.74902100     2.87732298     1.15598199     0.32503821    -0.17542900     0.99622031
Ti      0.01754000     6.61147198     1.20907000    -0.21943885     0.01227137    -0.46003712
Ti     -0.03049098     2.79440201     1.11021699    -0.15949819     0.02209375    -0.43594073
Ti      5.58919922     2.82120521     3.65108781     0.48131223    -0.18013130    -0.08781349
Ti      5.80476825    -1.00433376     3.61485483    -1.17622048     0.10521755     0.32448979
Ti      2.08297522     2.93542024     3.74662679     0.18056067    -0.64876233    -1.38104646
Ti      1.89338620    -0.91402675     3.68303381     1.00657466     0.10995687     0.11197313
O       3.87721699     4.75742302     0.76667502     0.10016122    -0.02004201     1.23819746
O       3.61798798     1.01176002     0.84107099    -0.10886029    -0.79508592    -0.52477649
O       7.26622802     4.72712799     0.74329898     0.56053746     0.23279008     0.23307059
O       0.12212998     0.84257798     0.75818500     0.19041263     0.11838855    -0.06967821
O       5.62414423     4.69125623     3.94850182     1.16368892     0.53340614     0.22759516
O       5.79844421     0.93118125     4.09584382     0.03857659     0.22492713    -0.66275042
O       1.92148720     4.76300224     4.14023983    -0.35690473     1.00010628    -0.54483033
O       1.97477620     1.00437122     4.07021079    -0.30216464    -0.11420227    -0.45754340
O       3.86984920     2.94983423     3.11922683    -1.57094950    -0.20719011     0.05866797
O       3.78543220    -0.90259176     3.31741583    -0.75198959    -0.03292273    -0.57884064
O       0.05800222    -0.65891976     3.17365181     0.11953474    -1.16908541    -0.15696308
O       5.65491600     6.72922498     1.74139702     0.38509972    -0.11768792    -1.09778227
O       5.82195900     2.53717298     1.59201102    -0.93333599     0.59661545     0.89451129
O       1.88459402     6.33806398     1.46768702    -0.11499983     0.59955525     1.14370347
O       1.68881897     3.00885401     1.78049899     0.99495122    -0.23229103     0.12389739
