# total energy = -19935.24824760 eV

CRYSTAL
PRIMVEC
        6.03728555     0.00000000     0.00000000
        0.64098036     6.39344681     0.00000000
        0.00000000     0.00000000    10.81897695
PRIMCOORD
24 1
Ti      2.56807006     3.78875070     4.01376338     0.00378029    -1.32804264     0.74981058
Ti      4.11019603     2.60469617     6.80521394    -0.00378029     1.32804264    -0.74981058
Ti      5.46790518     2.60469834     1.39568206     0.02816799     0.27687680    -0.43880520
Ti      1.21036093     3.78874883     9.42329544    -0.02816799    -0.27687680     0.43880520
Ti      2.24758001     0.59202735     1.39572547     0.00378029    -1.32804264    -0.74981058
Ti      4.43068609     5.80141976     9.42325204    -0.00378029     1.32804264     0.74981058
Ti      0.88987079     0.59202499     6.80517060    -0.02816799    -0.27687680    -0.43880520
Ti      5.78839525     5.80142206     4.01380678     0.02816799     0.27687680     0.43880520
O       2.13653915     2.25124132     5.52084127     1.53829879     1.58444008    -0.27365341
O       4.54172695     4.14220560     5.29813606    -1.53829879    -1.58444008     0.27365341
O       1.33354178     2.25126718     0.11138744    -1.09220786     0.79625912     0.38267362
O       5.34472438     4.14217980    10.70758964     1.09220786    -0.79625912    -0.38267362
O       4.22123688     0.94548200     0.11135236    -1.53829879    -1.58444008    -0.27365341
O       2.45702921     5.44796492    10.70762472     1.53829879     1.58444008     0.27365341
O       5.02423431     0.94545621     5.52087641     1.09220786    -0.79625912     0.38267362
O       1.65403172     5.44799072     5.29810098    -1.09220786     0.79625912    -0.38267362
O       0.60922911     3.88885692     2.92247566     0.41650987     0.41354050     0.79992885
O       6.06903692     2.50459001     7.89650167    -0.41650987    -0.41354050    -0.79992885
O       3.48909721     2.50453046     2.48704740     0.56927870     0.86140601     0.11440385
O       3.18916888     3.88891640     8.33192980    -0.56927870    -0.86140601    -0.11440385
O       0.28873905     0.69213332     2.48701282     0.41650987     0.41354050    -0.79992885
O       6.38952698     5.70131354     8.33196432    -0.41650987    -0.41354050     0.79992885
O       2.86867882     0.69219286     7.89653619    -0.56927870    -0.86140601     0.11440385
O       3.80958728     5.70125406     2.92244113     0.56927870     0.86140601    -0.11440385
