# total energy = -19075.64264375 eV

CRYSTAL
PRIMVEC
        7.60600008     0.00000000     0.00000000
        0.00000000     7.60600008     0.00000000
       -1.89786986    -1.89786986     4.85670466
PRIMCOORD
22 1
Ti      3.83513899     6.56966100     1.18525898     1.27101683     0.18504519    -1.21565788
Ti      3.77220600     2.86129499     1.15047299    -0.65885469    -0.06176898     0.62822307
Ti      0.23183901     6.69551797     1.03397499    -0.64786219    -0.23749186     1.00969958
Ti     -0.10501300     2.83786202     1.22200902     0.58210980     0.65319131     0.14354937
Ti      5.65095722     2.82053522     3.61882583    -0.62509172     0.89900661     0.22883572
Ti      6.03444922    -0.81627178     3.63148480     0.32138262    -1.42366843     0.01305581
Ti      1.80513922     2.80863821     3.61452880     0.82777957    -0.56736503    -0.66480911
Ti      1.50602025    -1.18820576     3.79739383    -0.08003410     1.77973035    -0.62130242
O       3.80516702     4.72511701     0.79765199    -0.00333446     1.30116149    -0.12459365
O       4.08481698     1.03593400     0.63070599    -0.43795159    -1.08915056     1.45555449
O      -0.15781500     4.81703103     0.75034598     0.67368379     0.82327037    -0.21415652
O      -0.22921699     0.99066098     0.91894498     0.88946833    -0.54989926    -0.63237951
O      -1.56880676     4.86672421     4.05202281    -0.38945980     0.03969682    -1.02643233
O       5.71335923     0.99645420     4.07338480     0.23304925    -0.43926311    -0.56193357
O       2.17161521     4.70415524     4.05324283    -1.08769480     0.17907097     0.49894692
O       1.54254221     1.02020124     4.10417683     0.29744229    -1.03076361    -0.88957683
O       3.70975721     2.75578520     3.25427080     1.07553476    -0.20571944    -0.47635952
O      -0.05502978     2.88965122     3.14908783     0.13209690     0.12269617     0.57628548
O       5.62989898     6.59849899     1.78793202     0.52262576     0.41453577     1.13222735
O       5.67908998     3.04955800     1.64247601    -0.88003443    -0.36162785     0.14723633
O       2.14602299     6.59957999     1.98756499    -1.38619819     0.42084526    -0.16683612
O       1.88592898     3.04227203     1.55536598    -0.62967394    -0.85153220     0.76042255
