# total energy = -19072.25248190 eV

CRYSTAL
PRIMVEC
        5.93400000     0.00000000     0.00000000
        0.00000000     9.29699974     0.00000000
        0.00000000     0.00000000     4.64899994
PRIMCOORD
22 1
Ti      4.32131000     7.22286300     2.38783598     1.15888224    -3.06932701    -0.47760444
Ti      4.43131902     2.40948198     2.21029701     0.90838805    -0.50004710    -0.38686324
Ti      1.40475901     7.13673702     2.52627399    -0.55851863    -1.82256109     0.71203077
Ti      1.71759299     2.42241602     2.20609799    -1.86248648    -0.43390827    -0.08959912
Ti      3.06588799     4.58333101     4.41019299    -1.02324570     0.93132487     0.72648552
Ti      3.01015202     9.23800701     0.08648503    -0.67771116     1.50646775     0.41798414
Ti      5.91360599     4.58035602     4.64506101    -0.90418687     0.63309711    -1.28624986
Ti      5.89881998     9.17767901     0.08136301     0.53946752     1.18064098     1.13484885
O       4.25210801     5.47319198     0.84409799     1.26186370     0.03209844     1.12761916
O       4.41137100     0.69092001     1.14887598     0.48477834     0.33017091    -1.18314164
O       1.55165401     0.73800901     1.09881402    -0.61617359     0.87175625    -1.22464851
O       4.49415702     8.08556099     3.94951700    -0.68424768     2.56134626     0.67460527
O       4.43607500     3.90465700     3.50364299     1.58532043    -2.15458191    -0.97405817
O       1.40715602     8.16172801     3.97814999     0.65594471     1.38986612    -0.01681631
O       1.50675898     3.95936202     3.37019798    -0.90051739    -0.90130698     0.77533907
O       2.96071798     6.10154202     3.33143601    -0.93488508     0.93639226    -1.49516749
O       3.10075601     1.51718901     3.23737200    -0.65220530    -0.82879078     1.20046214
O       5.74750900     6.09696098     3.36629498     1.69660630    -0.39970950    -0.84606835
O       2.82818199     8.06677101     1.65069302    -0.11239299    -1.05710637    -0.56277175
O       3.03862102     2.96428500     1.11364802     0.34298246     1.34960520    -0.76905092
O       0.00486197     7.97946201     1.41423102    -0.00762769    -2.16663319     2.19970041
O       0.02274600     2.81035401     1.15027402     0.29996532     1.61120630     0.34296446
