# total energy = -19957.27974819 eV

CRYSTAL
PRIMVEC
        4.94901948     0.00000000     0.00000000
        0.52543883     5.24098000     0.00000000
        0.00000000     0.00000000     8.86877510
PRIMCOORD
24 1
Ti      2.10515615     3.10579993     3.29025239     0.84138277    -0.12985361     0.07700123
Ti      3.36930232     2.13518012     5.57852302    -0.84138277     0.12985361    -0.07700123
Ti      4.48227420     2.13518190     1.14409989    -1.14123933    -0.65042301     0.98552915
Ti      0.99218428     3.10579840     7.72467566     1.14123933     0.65042301    -0.98552915
Ti      1.84243683     0.48530997     1.14413547     0.84041963    -0.12301602    -0.06122776
Ti      3.63202164     4.75567028     7.72464009    -0.84041963     0.12301602     0.06122776
Ti      0.72946490     0.48530804     5.57848749     1.14186308     0.65667567     0.96851255
Ti      4.74499353     4.75567216     3.29028796    -1.14186308    -0.65667567    -0.96851255
O       1.75141192     1.84543817     4.52566816    -0.81561079    -0.52732523    -0.34964111
O       3.72304655     3.39554193     4.34310724     0.81561079     0.52732523     0.34964111
O       1.09316086     1.84545936     0.09130901     0.93523706    -0.93161181     0.06373407
O       4.38129767     3.39552078     8.77746619    -0.93523706     0.93161181    -0.06373407
O       3.46032723     0.77505177     0.09128026     0.81645308     0.52777517    -0.34946576
O       2.01413124     4.46592833     8.77749494    -0.81645308    -0.52777517     0.34946576
O       4.11857834     0.77503062     4.52569697    -0.93426776     0.93115878     0.06420613
O       1.35588008     4.46594948     4.34307848     0.93426776    -0.93115878    -0.06420613
O       0.49941099     3.18786125     2.39567747    -0.55075158    -0.22906841    -0.70330522
O       4.97504743     2.05311885     6.47309793     0.55075158     0.22906841     0.70330522
O       2.86016123     2.05307004     2.03873843     0.15324552    -0.66210559    -0.42794614
O       2.61429723     3.18791001     6.83003687    -0.15324552     0.66210559     0.42794614
O       0.23669167     0.56737109     2.03871008    -0.54998437    -0.22854519     0.70527340
O       5.23776675     4.67360896     6.83006517     0.54998437     0.22854519    -0.70527340
O       2.35157791     0.56741990     6.47312623    -0.15264311     0.66140753    -0.42996420
O       3.12288056     4.67356020     2.39564917     0.15264311    -0.66140753     0.42996420
