# total energy = -19952.41589563 eV

CRYSTAL
PRIMVEC
        4.87887350     0.00000000     0.00000000
        0.77455914     5.13450279     0.00000000
        0.00000000     0.00000000     8.75690904
PRIMCOORD
24 1
Ti      2.22735999     3.04270155     3.24875082     1.43345508    -0.36750154     0.20807123
Ti      3.42607258     2.09180110     5.50815841    -1.43345508     0.36750154    -0.20807123
Ti      4.52326960     2.09180283     1.12966878    -2.13193716    -0.65236008     1.46696685
Ti      1.13016300     3.04270001     7.62724056     2.13193716     0.65236008    -1.46696685
Ti      1.84008053     0.47545024     1.12970389     1.43360086    -0.36773808    -0.21174456
Ti      3.81335206     4.65905255     7.62720544    -1.43360086     0.36773808     0.21174456
Ti      0.74288351     0.47544836     5.50812330     2.13251129     0.65186462     1.47344423
Ti      4.91054908     4.65905444     3.24878594    -2.13251129    -0.65186462    -1.47344423
O       1.81692969     1.80794566     4.46858370    -1.20136357    -0.72420161    -0.52445896
O       3.83650289     3.32655699     4.28832549     1.20136357     0.72420161     0.52445896
O       1.16800957     1.80796641     0.09015728     1.27582429    -1.17783719    -0.03877302
O       4.48542307     3.32653628     8.66675171    -1.27582429     1.17783719     0.03877302
O       3.44922342     0.75930554     0.09012888     1.20135997     0.72367916    -0.52471916
O       2.20420916     4.37519711     8.66678011    -1.20135997    -0.72367916     0.52471916
O       4.09814359     0.75928483     4.46861215    -1.27552887     1.17783514    -0.03868380
O       1.55528894     4.37521787     4.28829709     1.27552887    -1.17783514     0.03868380
O       0.64839152     3.12309565     2.36545964    -0.72340920    -0.64650901    -1.23546412
O       5.00504105     2.01140695     6.39144960     0.72340920     0.64650901     1.23546412
O       2.92012829     2.01135919     2.01302284     0.40861555    -1.24480366    -0.97146804
O       2.73330429     3.12314341     6.74388625    -0.40861555     1.24480366     0.97146804
O       0.26111205     0.55584420     2.01299483    -0.72385991    -0.64664400     1.23571583
O       5.39232053     4.57865840     6.74391421     0.72385991     0.64664400    -1.23571583
O       2.34602482     0.55589195     6.39147750    -0.40842143     1.24494378    -0.97188841
O       3.30740776     4.57861065     2.36543168     0.40842143    -1.24494378     0.97188841
