# total energy = -19075.79291937 eV

CRYSTAL
PRIMVEC
        7.60600008     0.00000000     0.00000000
        0.00000000     7.60600008     0.00000000
       -1.89786986    -1.89786986     4.85670466
PRIMCOORD
22 1
Ti      3.85611901     6.56837499     1.25753100     0.26125863     1.04558397    -0.37741546
Ti      3.71710500     2.83101701     1.14298000    -0.12657700    -0.50156173     0.94449664
Ti     -0.00849599     6.69251198     1.01853402    -0.27168292    -0.50071893     0.84455525
Ti     -0.10922599     2.85438399     1.05559701    -0.19793954     0.69715539     1.24951778
Ti      5.63552821     2.93036321     3.55945484    -0.58668354     0.08092884    -0.32953636
Ti     -1.29857880    -0.82900278     3.81926081    -1.27281378    -0.94881095    -1.29707446
Ti      1.82130025     2.78123423     3.65691479     0.48939861     0.05378184    -0.80501167
Ti      1.70376522    -1.05506476     3.77823079     0.21506180     0.49288374    -0.16502992
O       3.70580902     4.75593799     0.85682602    -0.14470740    -0.56916300    -0.50672323
O       3.96957001     0.88613599     0.85773801    -0.48448318    -0.03230541     0.40070169
O       0.01855602     4.79486099     0.66303798    -0.12838217     0.33067021     0.30053456
O       7.33183399     1.03718799     0.66085899     0.46291804    -1.03149895     1.68841965
O       5.35922323     4.90628423     4.00791181     1.44165304    -0.60385620     0.06352093
O       5.60600324     0.90175322     3.95509580     0.48913225     1.22204861    -0.05357718
O       2.15075420     4.69896221     4.18604282    -0.94613623     0.30328796    -0.46449901
O       2.11961021     0.90139920     4.05692781    -0.97127083    -0.25822781    -0.03559102
O       3.68932922     2.89955324     3.15886581     0.12543131    -0.44478096     0.03766616
O      -0.08917378     2.77004922     3.20037680     0.63241371     0.53392217     0.04603356
O       5.78826702     6.56458502     2.05620102     0.09850774     0.23682311    -1.44168930
O       5.59357499     2.98437400     1.61234699     0.91375318     0.00168664    -0.20991008
O       1.96200800     6.68672702     1.86802199    -0.03687760    -0.16054617    -0.20736238
O       1.78718202     2.75095900     1.51354499     0.03802560     0.05269761     0.31797333
