# total energy = -39028.49660476 eV

CRYSTAL
PRIMVEC
        5.93200024     0.00000000     0.00000000
        0.00000000     9.29399984     0.00000000
        0.00000000     0.00000000     9.29399984
PRIMCOORD
46 1
Ti      4.40669497     7.06849898     6.86023302     0.69463803    -1.43019646     2.48572546
Ti      4.36956298     6.93515399     2.11314197    -0.39562042    -0.00472697     0.35874641
Ti      4.54289599     2.61285501     6.67296799    -0.11560738    -1.83353353     0.63942794
Ti      4.35327501     1.94103999     2.71152100     1.47624596     0.33944411    -1.40168060
Ti      1.40364699     7.12753500     6.58226701    -0.10092638    -1.26282967     3.04375070
Ti      1.36413698     7.11468203     2.19812699     0.53680694    -1.45739514     1.07434125
Ti      1.50947398     2.04797702     7.48452602     1.42616214    -0.30797534    -1.19418864
Ti      1.70321101     2.44454500     4.31666801    -1.96879932    -2.72278897     1.62524196
Ti      2.90639301     5.01210301     4.44354503     0.50889452    -0.63073375    -1.67710473
Ti      3.08316901     4.81081002     9.18080703    -0.90208885     0.38491691    -1.47668562
Ti      3.12438499     0.01515601     4.90642198    -0.58917905    -0.37086429    -2.10309709
Ti      2.74681300     9.14853298     9.26306202     3.44122668     0.96804204    -3.76276228
Ti      5.90211199     4.70318198     4.48173998    -0.66049685    -0.36490807    -1.72493601
Ti      0.04415698     4.82643900     9.06105601     0.69366538     1.19690759    -1.66523960
Ti      0.02457002     9.04255698     4.40312901     0.11491678    -0.96717378     1.37427957
Ti      5.92377699     0.11684302     0.01347301    -1.93859939    -0.35031396    -0.95113343
O       4.50469500     5.57772099     5.29510198    -1.01188605     1.66976526     0.73657556
O       4.41718798     5.97835802     0.39997402     1.78546366    -0.80600489     0.88889214
O       4.41098999     1.01851502     5.51646100     1.80021614    -0.07073339    -0.72251111
O       4.38789098     0.80105101     1.20898099     0.58980203     1.25861691    -1.05202278
O       1.37678400     5.73266600     5.32855101     0.77526914    -0.02219480    -0.97310994
O       1.56254098     5.63719099     0.59503198    -1.88888169    -0.10909272     0.10518053
O       1.61179998     0.89172600     5.63168702    -1.32183728     0.16804968    -0.88502726
O       1.67952398     1.23892999     0.13885701    -2.27320108    -0.78896130     1.76486397
O       4.66868603     8.52116499     8.36155402    -2.32271155    -1.07104201     0.06540837
O       4.26413499     8.14711801     3.65704899     1.66370954     0.96142556     0.63767290
O       4.46778399     3.90865901     8.02409800     0.33711469    -0.87227561     0.48718901
O       4.55497901     3.59821099     3.56563002    -0.53424844     0.66124581    -0.92648991
O       1.30411198     8.18818698     8.48982198     1.20020811     1.12129296    -0.75319467
O       1.73511600     8.11486100     3.86083499    -2.70094976    -0.03400954    -0.90387705
O       1.54312103     3.33763802     8.70145398    -0.49999748     4.42642776     0.35289664
O       1.52710098     3.84797000     3.35227200    -1.03413793     1.93697857    -1.11473973
O       3.03764501     5.92245298     7.64066098    -0.60004428     0.91654540    -0.70136635
O       2.91203701     5.66483601     2.54935998     1.03943414     1.49042715     2.03544363
O       3.17953399     1.33016602     7.55472699     0.18051491     0.88969895     0.48009019
O       2.90195798     1.27777599     3.46185799    -1.64027649     0.49301076    -1.30010245
O       0.10424702     6.05449398     7.46816301    -0.76017778    -1.83956020     1.95192465
O       5.76798699     6.01268601     2.90569201     0.76383312    -0.33995653     0.13423143
O       5.77658300     1.38573800     7.57749801    -0.67969426     0.36086449     1.19034716
O       2.96853297     8.01910998     6.11207900     0.69519236    -1.87087548     1.92043325
O       2.74342499     7.96276101     1.22010102     0.81218094    -1.46169017     2.89998176
O       2.70423497     3.38850900     5.48698202     2.19229692    -0.09366507     2.01075434
O       5.88188700     8.10676702     6.35547402    -0.20395361     1.74388042    -3.92348868
O       0.01178901     8.02316501     1.35909800    -0.17152658     0.33026269     0.73284181
O       0.18948297     3.22794799     5.63996499    -0.22584039    -0.56672225     0.85417478
O       5.88533998     1.31629100     3.48481402     1.81288963     0.33242088    -0.63765696
