# total energy = -19913.21646265 eV

CRYSTAL
PRIMVEC
        7.89819855     0.00000000     0.00000000
        0.00002586     3.60260206     0.00000000
        0.00000000     0.00000000    12.02044088
PRIMCOORD
24 1
Ti      2.86273229     2.13489866     4.45949784    -0.05955783    -0.00461976     2.30224710
Ti      5.03549178     1.46770346     7.56094322     0.05955783     0.00461976    -2.30224710
Ti      6.81169639     1.46770468     1.55067461    -0.05948327     0.00483830    -2.30261708
Ti      1.08652768     2.13489755    10.46976656     0.05948327    -0.00483830     2.30261708
Ti      2.86271953     0.33359769     1.55072284    -0.05955783    -0.00461976    -2.30224710
Ti      5.03550454     3.26900448    10.46971834     0.05955783     0.00461976     2.30224710
Ti      1.08651493     0.33359635     7.56089500     0.05948327    -0.00483830    -2.30261708
Ti      6.81170915     3.26900583     4.45954606    -0.05948327     0.00483830     2.30261708
O       2.49983873     1.26853742     6.13393902     2.79077899     0.46068504    -1.16477933
O       5.39838535     2.33406464     5.88650204    -2.79077899    -0.46068504     1.16477933
O       1.44932476     1.26855195     0.12375716    -2.79049129     0.46055879    -1.16558717
O       6.44889937     2.33405017    11.89668355     2.79049129    -0.46055879     1.16558717
O       5.39837264     0.53276361     0.12371817    -2.79077899    -0.46068504    -1.16477933
O       2.49985143     3.06983850    11.89672254     2.79077899     0.46068504     1.16477933
O       6.44888667     0.53274908     6.13397801     2.79049129    -0.46055879    -1.16558717
O       1.44933735     3.06985303     5.88646305    -2.79049129     0.46055879     1.16558717
O       0.28697543     2.19130678     3.24702099    -1.27868567     0.31243826     0.25887805
O       7.61124864     1.41129528     8.77342006     1.27868567    -0.31243826    -0.25887805
O       4.23608476     1.41126172     2.76323775    -1.27823264    -0.31234673    -0.25887702
O       3.66213932     2.19134040     9.25720314     1.27823264     0.31234673     0.25887702
O       0.28696273     0.39000575     2.76319939    -1.27868567     0.31243826    -0.25887805
O       7.61126134     3.21259637     9.25724149     1.27868567    -0.31243826     0.25887805
O       3.66212661     0.39003931     8.77345836     1.27823264     0.31234673    -0.25887702
O       4.23609746     3.21256280     3.24698264    -1.27823264    -0.31234673     0.25887702
