# total energy = -4989.12674018 eV

CRYSTAL
PRIMVEC
        3.73032363     0.00000000     0.00000000
        1.09446367     3.56615531     0.00000000
       -2.41242732    -1.78310254     4.81642291
PRIMCOORD
6 1
Ti      0.82073360     2.67475319     1.20410544     0.00054482    -0.00054482     0.00000000
Ti      1.59162615    -0.89170060     3.61231674    -0.00054482     0.00054482     0.00000000
O       0.27365493     0.89153388     0.78455580    -0.00014707     0.00017046    -0.68653056
O       2.13870465     0.89151864     4.03186639     0.00014707    -0.00017046     0.68653056
O      -0.27362621    -0.89151265     3.19276710     0.00017046    -0.00014707    -0.68653056
O       2.68598577     2.67456506     1.62365514    -0.00017046     0.00014707     0.68653056
