# total energy = -39023.72105509 eV

CRYSTAL
PRIMVEC
        5.93200024     0.00000000     0.00000000
        0.00000000     9.29399984     0.00000000
        0.00000000     0.00000000     9.29399984
PRIMCOORD
46 1
Ti      4.44248498     6.86813898     6.95158198     2.24569695     2.76871146     0.01648695
Ti      4.42433399     7.14686098     2.31709101    -2.78811482     0.69949304    -2.09627955
Ti      4.70387600     2.25068398     6.57093901    -0.59417522     0.53742478    -0.38507426
Ti      4.37945700     2.49425199     2.35141599    -2.85715153    -0.62051258     1.29379553
Ti      1.53699199     6.81341703     7.33289901    -0.61550536    -1.80774536    -1.52791642
Ti      1.44040301     6.88691303     2.09224402     2.13654690     0.63522650    -2.18025232
Ti      1.67552398     2.19777297     7.27451800    -0.76582290     2.54854653    -1.29898453
Ti      1.29842899     2.47285799     4.23170997     1.39050684    -0.51950650     1.00441468
Ti      2.84971400     4.93404000     4.46285100     1.05207189     0.49117113    -0.15907961
Ti      2.99926299     4.72768802     0.01137398     0.21814559     0.36113574     0.12223929
Ti      2.83812402     9.17758201     4.77340502     1.97308998     0.98237466     0.78402349
Ti      2.95472801     9.18650600     8.84933701     1.87556055    -1.49765452     0.49073122
Ti      5.77500499     5.37083100     4.44622600     2.10081858    -1.41204575     1.65123171
Ti      5.85584603     4.43414800     8.90153500     0.85400097     1.02942998    -0.36222538
Ti      0.09711397     9.08188099     4.59330102    -3.62469836    -3.32125022     0.20016868
Ti      5.82119598     0.21744602     0.31424799    -0.19824575    -1.80598750    -2.16174757
O       4.31529601     5.77457102     5.39251298    -0.77151558     0.00249449     0.77683674
O       4.61252598     5.30674001     0.74729501    -0.10691242    -0.55308718     0.23938548
O       4.55123201     0.73907900     5.47486000     0.57710643     0.81837010    -0.37287155
O       4.34704400     1.23898100     0.79631201     0.34936086     0.17186443     0.93509617
O       1.64195700     5.78330800     5.51560098    -0.24638119    -0.43882165     0.35762156
O       1.42594203     5.85973400     0.30859199     0.27281060    -0.62814876     1.43959128
O       1.17639399     0.64448402     5.59565799     1.84833332     1.46099520     1.19464733
O       1.68011200     0.46948198     0.60968898    -1.51139759     3.08885635     1.59595889
O       4.70949999     8.21830298     8.57267500    -0.52561416     1.48218933    -0.92610270
O       4.14441298     8.34069200     3.72735902     1.97164399    -0.94858598    -1.10101106
O       4.41811801     3.51925203     8.34461997    -1.26101215    -0.50467277    -0.61885165
O       4.35636498     4.22237301     3.68151698     2.44053136    -3.61541024    -0.44280763
O       1.44255602     8.45117098     7.99773598    -0.16653504    -0.35158023     0.28572706
O       1.57177301     8.73834002     3.49267902    -0.94553948    -1.85214139    -0.92869515
O       1.67601601     4.03732698     7.92467200     0.54626938    -2.74827016     2.17945400
O       1.50836302     4.17696902     3.61458399    -3.20159361    -1.31148576    -1.10612987
O       3.37116802     5.89970900     7.95422099    -2.52101824     0.60910639    -0.62569361
O       2.99235500     5.82259099     2.72028799    -1.09461647     1.98233773     0.47761087
O       3.18088403     1.22626202     7.49081100     0.76307773    -0.92790479     1.97900763
O       2.94460199     1.82791798     3.53450302     0.75666771    -0.50879117    -1.90283173
O       5.81650302     5.57979701     7.53841399     0.41680015     1.76783514    -0.24712424
O       5.76549197     5.89925698     2.72677703     1.67669490     0.69753489     0.87793667
O       5.92576802     1.63758202     7.75772600    -0.14603769    -2.10198894     2.47299284
O       3.10287298     7.88244498     6.13683100    -1.06809501     0.31413159     0.18928031
O       2.98077898     7.83232401     1.19452900     0.44883096    -0.58564995     0.62092190
O       2.58396600     2.60273100     5.70545200     3.39854918     2.33759952     0.19788169
O       0.13779601     7.41844802     5.95069602    -0.45097475     2.42612392    -1.28112822
O       0.00498802     7.85854702     1.36318901    -0.44863170     1.92345482     0.35655095
O       0.44253300     3.14015997     5.97557301    -3.67459475     0.05475912    -2.04680919
O       0.06315402     2.08675000     2.87111102     0.27106842    -1.12992595     0.03202310
