# total energy = -4986.01593120 eV

CRYSTAL
PRIMVEC
        4.37362034     0.00000000     0.00000000
       -0.00000750     3.23267609     0.00000000
       -2.18683694    -1.61638033     4.96538444
PRIMCOORD
6 1
Ti     -0.00018888     2.42462610     1.24134582    -0.00329744    -0.00874690     8.56527418
Ti      2.18696456    -0.80833034     3.72403788     0.00329744     0.00874690    -8.56527418
O       0.00004562     0.80816137     0.80882041     0.00235616     0.00294649    -2.80682705
O       2.18672991     0.80813434     4.15656329    -0.00235616    -0.00294649     2.80682705
O      -0.00001958    -0.80815826     3.29151247    -0.00184271    -0.00020877    -0.93941254
O       2.18679505     2.42445386     1.67387128     0.00184271     0.00020877     0.93941254
