# total energy = -19074.16574577 eV

CRYSTAL
PRIMVEC
        7.60600008     0.00000000     0.00000000
        0.00000000     7.60600008     0.00000000
       -1.89786986    -1.89786986     4.85670466
PRIMCOORD
22 1
Ti      3.66150498     6.56079903     1.38140901    -0.71518758     0.25226465    -0.13879000
Ti      3.85935102     2.86314098     1.35548499     0.27117538    -0.19733430    -1.24224644
Ti     -0.04374301     6.57855901     0.95383300     0.55393281     1.10692408     0.99108479
Ti      0.27600203     2.85348799     0.97546201    -1.16418155    -0.95969829    -0.27653485
Ti      5.89057323     2.99041525     3.42219679     0.12893753    -0.76738665    -0.65473655
Ti      5.88356523    -0.89904278     3.43871284     0.44626963    -0.14973673     1.75039225
Ti      1.89971320     2.94824024     3.73744281     0.00445598    -2.30495833    -0.16224104
Ti      1.17549524    -1.00930077     4.08972881     1.03651826     1.50207759    -3.64207337
O       3.57061900     4.74459899     1.13842801     0.36542820     0.72215861    -0.54246157
O       3.94083198     1.06026499     0.78129502     0.65137380    -1.37967555     2.24163409
O       0.28251498     4.76451299     0.52713801     0.25224228    -0.12894858     0.60366002
O       0.02972002     0.87657899     0.47814800    -0.13684522     0.12456999     2.12963448
O       5.60215321     4.79313724     3.82067980    -0.02553672    -0.91368298    -0.06502271
O       5.96708623     0.89800321     3.81333979     0.18281604     1.36956314     0.32087431
O       1.89974823     4.81358322     4.28820182    -0.32277872    -0.69159333    -0.03683287
O       1.52427522     1.12235420     4.28464881     0.59153958    -0.50944680    -0.61130623
O       3.96527521     2.76921323     3.23715980    -0.90773242     0.13611477     0.34984628
O       0.19331623     3.05408125     3.17687382    -0.76692205     0.66061049    -0.61315202
O       5.63135501     6.40454801     1.68683101     0.63391240     0.40021447    -2.36006917
O       5.98558298     2.93614600     1.41008200    -1.06403447    -0.05641208     0.95721795
O       1.81477401     6.60905697     2.16465902    -0.49449531     0.42209791     0.10690754
O       1.93985997     2.35615700     1.64954100     0.47911214     1.36227792     0.89421484
