# total energy = -4985.32268864 eV

CRYSTAL
PRIMVEC
        3.96811209     0.00000000     0.00000000
        0.00000000     3.73046177     0.00000000
        0.00000000    -0.00007347     5.30554557
PRIMCOORD
6 1
Ti      1.98405588     1.86519427     2.65277290     0.00000000     0.00000000     0.00000000
Ti      0.00000000     0.00000000     0.00000000     0.00000000     0.00000000     0.00000000
O       1.98405588     0.72699778     1.03397275     0.00000000     0.28982848     1.19536492
O       1.98405588     3.00339075     4.27157311     0.00000000    -0.28982848    -1.19536492
O       0.00000000     1.13816714     3.68674668     0.00000000    -0.28874605     1.19537392
O       0.00000000     2.59222139     1.61879912     0.00000000     0.28874605    -1.19537392
