# total energy = -19958.07756360 eV

CRYSTAL
PRIMVEC
        5.14955407     0.00000000     0.00000000
        1.08531056     5.37214892     0.00000000
        0.00000000     0.00000000     9.26345879
PRIMCOORD
24 1
Ti      2.50961962     3.18353048     3.43667726     1.11676936    -1.33433439     0.74082020
Ti      3.72524476     2.18861857     5.82678190    -1.11676936     1.33433439    -0.74082020
Ti      4.88331446     2.18862050     1.19501531    -1.89577199    -0.47737227     0.91165104
Ti      1.35154995     3.18352876     8.06844396     1.89577199     0.47737227    -0.91165104
Ti      1.96696447     0.49745622     1.19505245     1.11676936    -1.33433439    -0.74082020
Ti      4.26789993     4.87469299     8.06840681    -1.11676936     1.33433439     0.74082020
Ti      0.80889470     0.49745414     5.82674476     1.89577199     0.47737227     0.91165104
Ti      5.42596970     4.87469507     3.43671440    -1.89577199    -0.47737227    -0.91165104
O       2.01202258     1.89162499     4.72707226     0.10741533     0.54726645    -0.60590768
O       4.22284180     3.48052407     4.53638690    -0.10741533    -0.54726645     0.60590768
O       1.32710140     1.89164662     0.09537251     0.40035665    -0.56027264     0.34049620
O       4.90776304     3.48050248     9.16808638    -0.40035665     0.56027264    -0.34049620
O       3.68018663     0.79444965     0.09534244    -0.10741533    -0.54726645    -0.60590768
O       2.55467776     4.57769941     9.16811645     0.10741533     0.54726645     0.60590768
O       4.36510787     0.79442806     4.72710233    -0.40035665     0.56027264     0.34049620
O       1.86975647     4.57772105     4.53635683     0.40035665    -0.56027264    -0.34049620
O       0.84724256     3.26764544     2.50229141    -0.22130547    -0.04768653    -0.28881110
O       5.38762182     2.10450361     6.76116774     0.22130547     0.04768653     0.28881110
O       3.18703538     2.10445343     2.12946763     0.82778677    -0.33281863    -0.68026787
O       3.04782901     3.26769562     7.13399137    -0.82778677     0.33281863     0.68026787
O       0.30458739     0.58157102     2.12943803    -0.22130547    -0.04768653     0.28881110
O       5.93027700     4.79057808     7.13402097     0.22130547     0.04768653    -0.28881110
O       2.50517383     0.58162115     6.76119729    -0.82778677     0.33281863    -0.68026787
O       3.72969055     4.79052791     2.50226181     0.82778677    -0.33281863     0.68026787
