# total energy = -19895.19139781 eV

CRYSTAL
PRIMVEC
        7.24217154     0.00000000     0.00000000
        0.00002280     2.92367132     0.00000000
        0.00000000     0.00000000    11.20907588
PRIMCOORD
24 1
Ti      2.62495247     1.73256488     4.15848722    -0.83533373     0.54664322    -0.24924103
Ti      4.61724208     1.19110634     7.05058876     0.83533373    -0.54664322     0.24924103
Ti      6.24591463     1.19110733     1.44600599    -0.83333855    -0.54705537     0.24903843
Ti      0.99627991     1.73256403     9.76307010     0.83333855     0.54705537    -0.24903843
Ti      2.62494117     0.27072927     1.44605092    -0.83553556     0.54335889     0.24851727
Ti      4.61725338     2.65294205     9.76302516     0.83553556    -0.54335889    -0.24851727
Ti      0.99626861     0.27072822     7.05054382     0.83397850     0.54344116     0.25079578
Ti      6.24592593     2.65294310     4.15853216    -0.83397850    -0.54344116    -0.25079578
O       2.29220114     1.02947435     5.71990561     7.08271075    -1.04784500     2.85510519
O       4.94999345     1.89419686     5.48917037    -7.08271075     1.04784500    -2.85510519
O       1.32894319     1.02948613     0.11540372    -7.08519675    -1.04820881     2.85277268
O       5.91325146     1.89418509    11.09367195     7.08519675     1.04820881    -2.85277268
O       4.94998215     0.43236120     0.11536736    -7.08369471     1.04828157     2.85362372
O       2.29221239     2.49131001    11.09370831     7.08369471    -1.04828157    -2.85362372
O       5.91324016     0.43234943     5.71994202     7.08644117     1.04840164     2.84991516
O       1.32895433     2.49132184     5.48913396    -7.08644117    -1.04840164    -2.84991516
O       0.26313873     1.77834262     3.02785102     1.68189650    -0.68973390     1.90307239
O       6.97905581     1.14532859     8.18122496    -1.68189650     0.68973390    -1.90307239
O       3.88423404     1.14530142     2.57672256     1.68676308     0.69016611    -1.89913243
O       3.35796056     1.77836985     8.63235322    -1.68676308    -0.69016611     1.89913243
O       0.26312743     0.31650696     2.57668676     1.68211633    -0.68883427    -1.89949984
O       6.97906711     2.60716425     8.63238901    -1.68211633     0.68883427     1.89949984
O       3.35794926     0.31653414     8.18126065    -1.68660470    -0.68882219    -1.90175495
O       3.88424534     2.60713708     3.02781528     1.68660470     0.68882219     1.90175495
