# total energy = -19931.96201477 eV

CRYSTAL
PRIMVEC
        6.10929723     0.00000000     0.00000000
        0.32493741     6.49401542     0.00000000
        0.00000000     0.00000000    10.93771776
PRIMCOORD
24 1
Ti      2.40688393     3.84834737     4.05781527    -0.00814886    -1.09385568     0.68635573
Ti      4.02735046     2.64566781     6.87990261     0.00814886     1.09385568    -0.68635573
Ti      5.40125401     2.64567003     1.41099996     0.07548402     0.56945225    -0.54856692
Ti      1.03298045     3.84834540     9.52671805    -0.07548402    -0.56945225     0.54856692
Ti      2.24441536     0.60133990     1.41104379    -0.00814886    -1.09385568    -0.68635573
Ti      4.18981903     5.89267547     9.52667421     0.00814886     1.09385568     0.68635573
Ti      0.87051186     0.60133749     6.87985871    -0.07548402    -0.56945225    -0.54856692
Ti      5.56372259     5.89267787     4.05785917     0.07548402     0.56945225     0.54856692
O       2.04804704     2.28665313     5.58143365     1.46798809     1.43937427    -0.12961964
O       4.38618735     4.20736205     5.35628423    -1.46798809    -1.43937427     0.12961964
O       1.23547044     2.28667934     0.11260993    -1.24570483     1.04713203     0.19725742
O       5.19876401     4.20733591    10.82510764     1.24570483    -1.04713203    -0.19725742
O       4.22371877     0.96035440     0.11257446    -1.46798809    -1.43937427    -0.12961964
O       2.21051561     5.53366078    10.82514311     1.46798809     1.43937427     0.12961964
O       5.03629543     0.96032825     5.58146918     1.24570483    -1.04713203     0.19725742
O       1.39793890     5.53368705     5.35624870    -1.24570483     1.04713203    -0.19725742
O       0.41961024     3.95002817     2.95455049     0.45141723     0.06175226     0.56683950
O       6.01462421     2.54398701     7.98316745    -0.45141723    -0.06175226    -0.56683950
O       3.40391456     2.54392651     2.51434323     0.51927484     0.59460665    -0.09024730
O       3.03031989     3.95008867     8.42337446    -0.51927484    -0.59460665     0.09024730
O       0.25714166     0.70302051     2.51430833     0.45141723     0.06175226    -0.56683950
O       6.17709279     5.79099467     8.42340937    -0.45141723    -0.06175226     0.56683950
O       2.86785131     0.70308102     7.98320230    -0.51927484    -0.59460665    -0.09024730
O       3.56638313     5.79093416     2.95451552     0.51927484     0.59460665     0.09024730
