# total energy = -19958.61097513 eV

CRYSTAL
PRIMVEC
        7.60600008     0.00000000     0.00000000
        0.00000000     7.60600008     0.00000000
       -1.89786986    -1.89786986     4.85670466
PRIMCOORD
24 1
Ti      3.75401098     6.62606002     1.20743400    -1.02278393     1.91932254    -1.61827504
Ti      4.03077402     2.96584301     1.17333001    -3.55182710    -2.39659968     0.37646132
Ti     -0.11926301     6.65747802     1.22419902     0.63898468    -1.31025343     2.45521108
Ti      0.02906898     2.69690301     1.22318602     1.80711878     1.77340852     0.33837324
Ti      5.71418321     2.74715823     3.70417683    -0.09553374    -0.05640694     0.78660539
Ti      5.59103822    -1.04379376     3.66647681     1.18351213     0.32654205    -1.02070442
Ti      1.91694623     2.90701321     3.60994681     0.18808938     0.55342759    -1.67243869
Ti      2.00525522    -0.78218880     3.63182380    -2.40251990    -1.08318868     0.64795320
O       4.10325601     4.78690301     0.75045298    -0.74530086     0.09512571    -0.98361727
O       3.90694897     1.01310900     0.70726201    -0.22779134     1.79731105     0.74856256
O       0.03838101     4.61822898     0.87260000    -0.82459937     0.63616135    -1.61338480
O       7.14926201     0.93146399     1.01150702     1.51950222    -1.18903487    -1.40622683
O       5.55654623     4.67696321     4.15578680    -0.02834488     0.37439595    -0.54006968
O       5.74518723     0.79517121     4.05281584     0.40230735     0.91686190     0.50133136
O       2.00773225     4.97754821     4.14314084    -0.27320552    -3.83005476    -0.24566334
O       1.71660523     1.05250122     3.64084780     0.13170789     1.16380642     1.98591902
O       3.74140921     2.72486622     3.10015280     1.76064505     0.59454340     1.03333703
O       3.77825725    -0.70301579     3.23335984     0.92408130    -0.45140772     0.14014729
O      -0.08317777     2.99485621     3.13136881     1.02891756    -0.19810846     1.22366867
O       0.06168820    -1.18601475     3.14458379    -3.37870592     0.60231662     0.59691165
O       5.50629302     6.73827301     1.70721302     2.63740723    -1.02516040     0.69616269
O       5.69796398     2.81965599     1.70293901     1.11636184     0.24246335    -0.06429689
O       1.81814302     6.51327499     1.75111398     1.49885163     0.43522622    -2.76113853
O       2.04858500     2.87471498     1.52237902    -2.28687473     0.10930226     0.39517150
