# total energy = -4976.40031853 eV

CRYSTAL
PRIMVEC
        4.84901397     0.00000000     0.00000000
       -0.00000734     2.90940838     0.00000000
       -2.42453430    -1.45475727     5.28078536
PRIMCOORD
6 1
Ti     -0.00020785     2.18215970     1.32019599    -0.00896595    -0.01114471    17.04698592
Ti      2.42468002    -0.72750869     3.96058872     0.00896595     0.01114471   -17.04698592
O       0.00005135     0.72734275     0.86019667     0.00725694     0.01172783    -9.72203474
O       2.42442071     0.72730820     4.42058809    -0.00725694    -0.01172783     9.72203474
O      -0.00001997    -0.72735243     3.50058935    -0.00229034    -0.00012007    -1.83035179
O       2.42449198     2.18200333     1.78019536     0.00229034     0.00012007     1.83035179
