# total energy = -19961.14988818 eV

CRYSTAL
PRIMVEC
        7.60600008     0.00000000     0.00000000
        0.00000000     7.60600008     0.00000000
       -1.89786986    -1.89786986     4.85670466
PRIMCOORD
24 1
Ti      3.78064199     6.52333402     1.24776101    -0.46882207     1.52154625    -0.50514843
Ti      3.82568100     2.86359199     1.24220200    -1.35531383    -1.69719097    -0.79227236
Ti      0.01349899     6.73002599     1.16484899     0.55044537    -0.16875056     1.17792307
Ti     -0.01384301     2.91571198     1.21235799     0.75757634     0.15297350    -0.61480396
Ti      5.72321823     2.89707621     3.61850181     0.32112319    -0.42890619     0.48936647
Ti      5.73208322    -0.96603376     3.59784480     0.50435344     0.60570251     0.07866807
Ti      1.90975122     2.81224323     3.63216882    -0.70896422    -0.25383045    -0.20220834
Ti      1.92015320    -1.04766575     3.63980083    -0.66426172     0.45807819     1.11596846
O       3.57571598     4.62810898     0.80744998     0.74158485     1.40472582    -0.49910916
O       3.64796502     0.83672099     0.91860900     0.93363604     0.87809530    -0.48723091
O       0.06000097     4.87695400     0.72175602    -0.41867962    -0.33739519     0.22558430
O       0.00646797     1.01000299     0.70134200    -0.34886438    -0.11912645     0.66910079
O       5.94097821     4.83507221     4.04275184    -0.38862059    -0.61526599    -0.28650636
O       5.71817824     1.04978723     4.10301079    -0.24697666    -0.33677479    -1.16333385
O       1.70907223     4.68172125     4.09863179     0.65263184    -0.50601874     0.20805632
O       1.80846320     0.84551422     4.08558879     0.94028697     0.65211608     0.34542270
O       3.79369922     3.02129121     3.27293182     0.03254452    -0.60146456    -0.05491004
O       3.78102723    -1.10571978     3.21188381     1.19360475    -0.13236070     0.83732839
O       0.08168020     2.70423423     3.10058381    -2.41906650     0.12986621     1.24012708
O       0.07990021    -0.99332978     3.16789384    -1.61466881     0.44897263    -0.33173285
O       5.69346301     6.63985699     1.65908302     0.56133476     0.08970274    -0.69373531
O       5.63478101     3.03447201     1.63221601     0.93018150    -0.27396194    -0.01694255
O       1.95784999     6.69068500     1.71787298    -1.27377152    -0.27276175    -0.75772469
O       1.79007402     3.01132002     1.64048498     1.78870582    -0.59797094     0.01811369
