# total energy = -4990.50929054 eV

CRYSTAL
PRIMVEC
        3.78885946     0.00000000     0.00000000
        0.37793230     3.76996329     0.00000000
       -2.08342949    -1.88501205     4.84149854
PRIMCOORD
6 1
Ti      0.28330405     2.82761588     1.21037440    -0.00018255     0.00018255     0.00000000
Ti      1.80005790    -0.94266494     3.63112356     0.00018255    -0.00018255     0.00000000
O       0.09452302     0.94248486     0.78864047    -0.00015170     0.00010696    -0.02944763
O       1.98883882     0.94246598     4.05285760     0.00015170    -0.00010696     0.02944763
O      -0.09450205    -0.94246589     3.20938963     0.00010696    -0.00015170    -0.02944763
O       2.17786383     2.82741668     1.63210843    -0.00010696     0.00015170     0.02944763
