# total energy = -19515.65921136 eV

CRYSTAL
PRIMVEC
        5.17600016     0.00000000     0.00000000
        0.00000000     5.50899976     0.00000000
        0.00000000     0.00000000     9.26300011
PRIMCOORD
23 1
Ti      1.76844301     3.28223697     3.46688401    -0.53094791    -1.30638803     3.10806687
Ti      3.37610699     2.30192601     5.83104799    -1.10452165     0.75413800    -3.24983523
Ti      4.37220902     2.02227102     1.57897802    -0.63229647    -0.97787523    -1.21097615
Ti      0.93367500     3.14972099     7.82019003     1.53114238     1.64437355     1.25277331
Ti      2.02133200     0.26170101     1.34151201     0.38084480    -0.11169982    -1.90769112
Ti      3.38021801     5.35101400     7.71093397    -0.66602807    -0.90214387     3.10676383
Ti      0.63880002     0.57143602     6.07204002    -0.43913430    -2.33593628    -4.96872401
Ti      4.43407302     4.96370102     3.28306498     0.74532580    -0.01408734     3.23115076
O       1.51419001     2.17641999     4.95096002     0.73482618    -0.65658594    -0.22183666
O       3.39218699     3.66715098     4.44262002     1.27913098    -0.43432093     1.58324118
O       0.20044202     2.54641299     0.03328498     1.04815430     0.85769848     0.45387804
O       3.58765702     0.92089298     0.21665702    -1.02665679    -0.18583066    -1.23909941
O       1.97649698     4.92899901     8.86498700    -1.51493388    -1.10642478     0.78634571
O       4.29311099     0.86609202     4.74584399    -0.90220866     0.15267371    -0.11703306
O       0.88966602     4.76237601     4.40697602    -0.16022555     0.73152463     0.38406742
O       0.10928299     3.29633902     2.63162498    -1.19932340    -0.16886678    -1.12339946
O       5.03821299     1.98714900     6.85391300    -2.06637581     0.29107804     0.73601069
O       2.47567300     1.87036403     2.23428001     0.71591648     0.02993537     0.10456398
O       2.84838302     3.45313000     7.21549902    -0.88298760     0.47577099     0.26384310
O       0.13463698     0.39209902     1.80416199     1.06564321     0.17030042     0.72293354
O       5.08542301     4.62152898     7.23263601     0.33486934     1.05866060    -0.39346198
O       2.24386701     0.99824600     6.80674802     1.95273224    -0.20689623     1.00515438
O       2.72732901     4.40240700     2.34735699     1.33705384     2.24090261    -2.30673599
