# total energy = -19960.48416083 eV

CRYSTAL
PRIMVEC
        5.93400000     0.00000000     0.00000000
        0.00000000     9.29699974     0.00000000
        0.00000000     0.00000000     4.64899994
PRIMCOORD
24 1
Ti      4.43699302     6.82884498     2.36464701     1.22288628     1.67832832     0.28878487
Ti      4.47209800     2.38919999     2.34949201    -0.26572130    -1.12321537     0.47709665
Ti      1.46527101     6.86066298     2.19637298    -1.18210780     2.05942509     0.60142213
Ti      1.54466601     2.44808800     2.32215699     0.44193423    -0.91512512     0.56831557
Ti      2.98842702     4.72013899     4.53803402    -0.88546923    -0.59357307     0.84482985
Ti      2.98717600     9.21853498     0.07888900    -1.24552151    -0.82069335    -0.99990959
Ti      5.89745502     4.62598603     0.04143400     0.66513564     0.44970462    -0.60277376
Ti      5.89223998     0.06458201     0.05766201     1.11082059    -1.09631622    -0.74784163
O       4.44403102     5.65103602     0.86502398    -0.21260460    -0.82586667    -0.76781731
O       4.45961201     0.95615302     0.97922700    -0.33850823    -0.58492130    -0.88607910
O       1.44410799     5.62892202     0.68430000     0.49183011     0.17543363     1.13119197
O       1.47750601     0.86780799     0.91838098     0.35161211     0.28843314    -0.05783339
O       4.46947799     8.28303602     3.77302199    -0.50994431     0.95616919     0.85193329
O       4.41201998     3.74903502     3.74493998     0.42503256     0.22218479     0.29714790
O       1.47219699     8.26369300     3.66648200     0.81870331     1.42800974     1.59065778
O       1.43561200     3.71657301     3.79619699     0.28402781    -0.37700460    -0.45959540
O       2.92627600     5.89753699     3.10513500     0.39067079     0.13953511     0.04462614
O       2.97596802     1.47652502     3.24765201    -0.18886508     0.17407146    -0.37606331
O       0.07260899     6.04837500     3.23368099    -0.84024300    -0.59186380    -0.66351995
O       5.92609103     1.45024999     3.24664801    -0.17772346     0.38737874    -0.20256290
O       3.01478698     7.85599199     1.55667601     0.01224180     0.62945205    -1.30200712
O       2.96536098     3.45263999     1.52859998    -0.32036009    -1.03953365    -0.32671637
O       0.01489200     7.85691302     1.42975602    -0.32245271    -0.10001364    -0.09696379
O       5.90550100     3.31925599     1.38478198     0.27462657    -0.51999938     0.79367747
