# total energy = -19946.92430378 eV

CRYSTAL
PRIMVEC
        5.76122296     0.00000000     0.00000000
        0.91463898     6.06308309     0.00000000
        0.00000000     0.00000000    10.34060535
PRIMCOORD
24 1
Ti      2.63018042     3.59297736     3.83629087     0.11384463    -1.50017883     0.80476562
Ti      4.04568146     2.47010555     6.50431472    -0.11384463     1.50017883    -0.80476562
Ti      5.34130772     2.47010760     1.33397058    -0.24476551    -0.11640751    -0.17917099
Ti      1.33455418     3.59297555     9.00663513     0.24476551     0.11640751     0.17917099
Ti      2.17286105     0.56143593     1.33401205     0.11384463    -1.50017883    -0.80476562
Ti      4.50300084     5.50164716     9.00659366    -0.11384463     1.50017883     0.80476562
Ti      0.87723478     0.56143370     6.50427325     0.24476551     0.11640751    -0.17917099
Ti      5.79862711     5.50164939     3.83633234    -0.24476551    -0.11640751     0.17917099
O       2.14552335     2.13491455     5.27673181     1.42123976     1.56955133    -0.41454066
O       4.53033852     3.92816836     5.06387372    -1.42123976    -1.56955133     0.41454066
O       1.37924534     2.13493906     0.10646232    -0.77284047     0.39197202     0.56518345
O       5.29661660     3.92814391    10.23414298     0.77284047    -0.39197202    -0.56518345
O       4.07301914     0.89662675     0.10642878    -1.42123976    -1.56955133    -0.41454066
O       2.60284273     5.16645616    10.23417652     1.42123976     1.56955133     0.41454066
O       4.83929722     0.89660230     5.27676541     0.77284047    -0.39197202     0.56518345
O       1.83656460     5.16648068     5.06384018    -0.77284047     0.39197202    -0.56518345
O       0.76565382     3.68791082     2.79325553     0.30585160     0.66808032     0.86731184
O       5.91020805     2.37517203     7.54735006    -0.30585160    -0.66808032    -0.86731184
O       3.44823659     2.37511564     2.37708016     0.65546520     0.92223628     0.18071802
O       3.22762528     3.68796721     7.96352526    -0.65546520    -0.92223628    -0.18071802
O       0.30833444     0.65636921     2.37704709     0.30585160     0.66808032    -0.86731184
O       6.36752743     5.40671365     7.96355827    -0.30585160    -0.66808032     0.86731184
O       2.77030590     0.65642560     7.54738301    -0.65546520    -0.92223628     0.18071802
O       3.90555597     5.40665726     2.79322252     0.65546520     0.92223628    -0.18071802
