# total energy = -4972.00726857 eV

CRYSTAL
PRIMVEC
        2.75230848     0.00000000     0.00000000
        2.02939073     3.80510699     0.00000000
       -0.00001305    -0.00005879     4.46260842
PRIMCOORD
6 1
Ti      2.39084286     1.90252401     2.23130431     0.00000000     0.00000000     0.00000000
Ti      0.00000000     0.00000000     0.00000000     0.00000000     0.00000000     0.00000000
O       1.77164995     0.74154782     0.86969670   -13.98999790     5.39673160     8.30353269
O       3.01003579     3.06350029     3.59291196    13.98999790    -5.39673160    -8.30353269
O       0.61918738     1.16095256     3.10100188    13.99305468    -5.40029206     8.30959278
O       1.41019000     2.64409562     1.36160674   -13.99305468     5.40029206    -8.30959278
