# total energy = -19954.65716852 eV

CRYSTAL
PRIMVEC
        5.93400000     0.00000000     0.00000000
        0.00000000     9.29699974     0.00000000
        0.00000000     0.00000000     4.64899994
PRIMCOORD
24 1
Ti      4.36245401     6.58497602     1.85983901     1.72896930     0.65759484     3.28550930
Ti      4.47380100     2.51452302     2.33218199    -0.39151128    -1.47676816     0.97182413
Ti      1.40968401     6.73626700     1.97516398    -0.32271265     2.50787475     3.40478977
Ti      1.45270998     2.64510402     2.24146799     0.44512317    -3.51469470     0.81097483
Ti      2.95850300     4.67554400     4.52932598     0.81403033    -4.78358369    -1.15545676
Ti      3.02393302     8.99527701     0.58451702    -0.45641083     3.01210375    -4.15279183
Ti      0.06114802     4.79390201     4.48232901    -1.08311797    -4.07661002    -0.87775900
Ti      0.01501800     0.00651502     0.50314099     0.55126272     1.23199827    -2.69329172
O       4.39825999     5.74720001     0.29746598     0.78952874     2.41147943     1.22836659
O       4.53720898     0.96316001     1.23287398    -1.08782669    -1.24287276    -1.57003264
O       1.54386600     5.73460601     0.58831000    -0.18663156     0.08037683    -1.36150144
O       1.53962099     0.94409301     1.25264801     0.23086818    -0.92944000    -1.31656472
O       4.50376598     8.42659599     4.15763199    -1.21849098     0.09265951     1.10811862
O       4.45285299     3.65923502     3.86311400     0.77850127     2.27369113     0.13892241
O       1.48614001     8.24339800     4.22570598     1.23719447     0.58777831     1.06158678
O       1.50623398     3.76265800     3.74890903    -1.19790286     1.25594605     0.40077085
O       2.92024301     5.67079401     2.85826402     0.52982563     0.92344290    -1.23359364
O       3.02274501     1.89902702     3.13921502    -1.36275357    -1.38300385     0.68320124
O       0.01241101     5.76757402     2.74708399    -0.71408509     0.20033041     0.48077924
O       5.90186698     1.62315400     3.16294402     0.92027761     0.86376320     0.23880826
O       3.03188502     7.82627498     1.93049899    -0.55744211     0.38150557     0.51706755
O       2.90214700     3.28084497     1.25353798     0.40932672     2.52522045    -1.56879517
O       5.85992402     7.92308600     1.69808101    -0.28199793    -1.61499534     1.14235904
O       5.90762501     3.61217597     1.27265202     0.42597564     0.01620310     0.45670805
