# total energy = -4985.76533493 eV

CRYSTAL
PRIMVEC
        4.13211842     0.00000000     0.00000000
        1.76984664     3.73390485     0.00000000
       -2.95102165    -1.86697718     5.41923143
PRIMCOORD
6 1
Ti      1.32728060     2.80057235     1.35480780     0.00055124    -0.00055124     0.00000000
Ti      1.62366309    -0.93364445     4.06442330    -0.00055124     0.00055124     0.00000000
O       0.44250458     0.93347131     0.88274845    -0.00051988    -0.00073714    -1.99846652
O       2.50843896     0.93345645     4.53648270     0.00051988     0.00073714     1.99846652
O      -0.44246735    -0.93344780     3.59236400    -0.00073714    -0.00051988    -1.99846652
O       3.39341082     2.80037552     1.82686715     0.00073714     0.00051988     1.99846652
