# total energy = -4985.33017504 eV

CRYSTAL
PRIMVEC
        3.10180263     0.00000000     0.00000000
        2.08164376     4.39168992     0.00000000
       -0.00001360    -0.00006531     4.99436130
PRIMCOORD
6 1
Ti      2.59171629     2.19581233     2.49718054     0.00000000     0.00000000     0.00000000
Ti      0.00000000     0.00000000     0.00000000     0.00000000     0.00000000     0.00000000
O       1.95658030     0.85586301     0.97332743    -2.45362420     1.40886864     1.35332688
O       3.22685223     3.53576166     4.02103365     2.45362420    -1.40886864    -1.35332688
O       0.63513030     1.33992296     3.47050900     2.45341877    -1.40879896     1.35296075
O       1.44649973     3.05170157     1.52385208    -2.45341877     1.40879896    -1.35296075
