# total energy = -4990.61091598 eV

CRYSTAL
PRIMVEC
        3.84117969     0.00000000     0.00000000
       -0.00000855     3.84117969     0.00000000
       -1.92061997    -1.92062425     4.90219958
PRIMCOORD
6 1
Ti     -0.00016915     2.88103026     1.22554976     0.00009230    -0.00009230     0.00000000
Ti      1.92072022    -0.96047492     3.67664950    -0.00009230     0.00009230     0.00000000
O       0.00003837     0.96028840     0.79852820    -0.00001851    -0.00024220    -0.15143263
O       1.92051259     0.96026684     4.10367111     0.00001851     0.00024220     0.15143263
O      -0.00002170    -0.96027172     3.24962794    -0.00024220    -0.00001851    -0.15143263
O       1.92057260     2.88082690     1.65257138     0.00024220     0.00001851     0.15143263
