# total energy = -4989.94103454 eV

CRYSTAL
PRIMVEC
        3.97428988     0.00000000     0.00000000
       -0.00000885     3.97428988     0.00000000
       -1.98717611    -1.98718053     5.07207778
PRIMCOORD
6 1
Ti     -0.00017502     2.98086794     1.26801931     0.00001903    -0.00001903     0.00000000
Ti      1.98727983    -0.99375870     3.80405814    -0.00001903     0.00001903     0.00000000
O       0.00003970     0.99356572     0.82619997    -0.00023346    -0.00115263    -0.58370800
O       1.98706500     0.99354341     4.24587754     0.00023346     0.00115263     0.58370800
O      -0.00002245    -0.99354847     3.36223881    -0.00115263    -0.00023346    -0.58370800
O       1.98712709     2.98065754     1.70983870     0.00115263     0.00023346     0.58370800
