# total energy = -19955.13282591 eV

CRYSTAL
PRIMVEC
        5.39859575     0.00000000     0.00000000
        1.41436329     5.56893940     0.00000000
        0.00000000     0.00000000     9.73986510
PRIMCOORD
24 1
Ti      2.79488174     3.30014849     3.61342067     0.83253611    -1.97894773     0.95587300
Ti      4.01807746     2.26879127     6.12644498    -0.83253611     1.97894773    -0.95587300
Ti      5.23215363     2.26879320     1.25647327    -1.66756234    -0.49015272     0.59369237
Ti      1.58080559     3.30014678     8.48339249     1.66756234     0.49015272    -0.59369237
Ti      2.08770021     0.51567884     1.25651232     0.83253611    -1.97894773    -0.95587300
Ti      4.72525901     5.05326114     8.48335344    -0.83253611     1.97894773     0.95587300
Ti      0.87362395     0.51567670     6.12640593     1.66756234     0.49015272     0.59369237
Ti      5.93933526     5.05326323     3.61345972    -1.66756234    -0.49015272    -0.59369237
O       2.20671101     1.96091835     4.97017884     0.90165947     1.33953599    -0.71318392
O       4.60624814     3.60802142     4.76968681    -0.90165947    -1.33953599     0.71318392
O       1.48866690     1.96094083     0.10027740    -0.01415547    -0.35537981     0.66204825
O       5.32429236     3.60799904     9.63958798     0.01415547     0.35537981    -0.66204825
O       3.89906659     0.82355160     0.10024580    -0.90165947    -1.33953599    -0.71318392
O       2.91389261     4.74538817     9.63961958     0.90165947     1.33953599     0.71318392
O       4.61711081     0.82352916     4.97021044     0.01415547     0.35537981     0.66204825
O       2.19584834     4.74541066     4.76965521    -0.01415547    -0.35537981    -0.66204825
O       1.05643940     3.38734475     2.63098071     0.11261719     0.64306991     0.53809892
O       5.75651974     2.18159502     7.10888494    -0.11261719    -0.64306991    -0.53809892
O       3.44950632     2.18154308     2.23898312     1.02055298     0.42802636    -0.25141105
O       3.36345288     3.38739673     7.50088237    -1.02055298    -0.42802636     0.25141105
O       0.34925785     0.60287493     2.23895201     0.11261719     0.64306991    -0.53809892
O       6.46370136     4.96606488     7.50091347    -0.11261719    -0.64306991     0.53809892
O       2.65627133     0.60292686     7.10891600    -1.02055298    -0.42802636    -0.25141105
O       4.15668787     4.96601290     2.63094960     1.02055298     0.42802636     0.25141105
