# total energy = -19924.12946448 eV

CRYSTAL
PRIMVEC
        7.11277782     0.00000000     0.00000000
        0.00003005     5.59532575     0.00000000
        0.00000000     0.00000000    11.32463801
PRIMCOORD
24 1
Ti      2.57805768     3.31578490     4.20135993     0.48681182    -0.69047952     1.04091844
Ti      4.53475025     2.27954104     7.12327814    -0.48681182     0.69047952    -1.04091844
Ti      6.13432375     2.27954298     1.46091386     0.48564094     0.69040805    -1.04135939
Ti      0.97848418     3.31578321     9.86372434    -0.48564094    -0.69040805     1.04135939
Ti      2.57804278     0.51812215     1.46095926     0.48681182    -0.69047952    -1.04091844
Ti      4.53476515     5.07720397     9.86367893    -0.48681182     0.69047952     1.04091844
Ti      0.97846928     0.51812002     7.12323274    -0.48564094    -0.69040805    -1.04135939
Ti      6.13433865     5.07720611     4.20140533     0.48564094     0.69040805     1.04135939
O       2.25124971     1.97020935     5.77887610     0.84121924     1.35804460    -1.11512051
O       4.86155828     3.62511659     5.54576198    -0.84121924    -1.35804460     1.11512051
O       1.30520202     1.97023192     0.11659352    -0.84103464     1.35785459    -1.11539536
O       5.80760604     3.62509408    11.20804424     0.84103464    -1.35785459     1.11539536
O       4.86154339     0.82745365     0.11655678    -0.84121924    -1.35804460    -1.11512051
O       2.25126461     4.76787229    11.20808098     0.84121924     1.35804460     1.11512051
O       5.80759114     0.82743114     5.77891284     0.84103464    -1.35785459    -1.11539536
O       1.30521679     4.76789486     5.54572523    -0.84103464     1.35785459     1.11539536
O       0.25844196     3.40339429     3.05906725    -1.36466930     0.28088258     0.07438487
O       6.85436603     2.19193164     8.26557082     1.36466930    -0.28088258    -0.07438487
O       3.81483853     2.19187946     2.60328780    -1.36444819    -0.28059950    -0.07449106
O       3.29796946     3.40344654     8.72135009     1.36444819     0.28059950     0.07449106
O       0.25842706     0.60573142     2.60325163    -1.36466930     0.28088258    -0.07438487
O       6.85438093     4.98959458     8.72138626     1.36466930    -0.28088258     0.07438487
O       3.29795456     0.60578361     8.26560693     1.36444819     0.28059950    -0.07449106
O       3.81485343     4.98954233     3.05903108    -1.36444819    -0.28059950     0.07449106
