# total energy = -19074.08616509 eV

CRYSTAL
PRIMVEC
        5.93400000     0.00000000     0.00000000
        0.00000000     9.29699974     0.00000000
        0.00000000     0.00000000     4.64899994
PRIMCOORD
22 1
Ti      4.41248899     6.84707000     2.38764802    -0.69848183    -0.19084714    -0.01535695
Ti      4.49856999     2.47095602     2.16159498    -0.37318728    -0.85699142    -0.67661176
Ti      1.51512803     7.21858598     2.54987900     0.21704232    -0.48173724    -0.28553551
Ti      1.66954602     2.35141398     2.24097501    -0.14424357    -0.36469595     0.04884147
Ti      3.00654700     4.54404002     4.47365299    -0.50163938    -0.45912026    -0.27444737
Ti      3.04204702     9.28060499     4.47624500    -0.39316758     1.48609149     1.18037719
Ti      5.78681602     4.68165801     0.00176200     0.09756029    -0.16461134    -0.88493547
Ti      5.80900601     9.15332399     0.24878999     0.78191878     0.64875256     1.90113866
O       4.26497998     5.49069801     0.92982200     0.38414070     0.36807669     1.01955385
O       4.35818498     0.95458199     0.96255802     1.29826205    -1.80186576    -1.91878363
O       1.55874699     0.83305998     0.87057198    -1.12071317     0.54944238     0.57449033
O       4.51343299     8.21329702     3.86616999     0.18513904     0.97823878    -0.09623951
O       4.48348500     3.69225801     3.57571100     0.08014337     1.11336496     0.68691340
O       1.38127899     8.49324300     3.77647699    -0.30354455     0.80138281    -0.11023043
O       1.45324498     3.75416402     3.76958297    -0.16910512    -0.41344254    -1.37550908
O       2.78640800     6.28072498     3.59339299     0.37905505    -1.31977962    -0.99018413
O       3.25058000     1.40412299     3.13704100    -1.74732698    -0.55234336     1.07978274
O       5.92460801     6.13073202     3.28374402     0.73148555    -1.20964638     0.56770776
O       3.00361002     7.87808101     1.53757901    -0.60299565    -0.25632674    -0.27076940
O       2.96290602     2.93373999     1.05948699     0.18057198     2.09826856     0.27251724
O       5.88370001     7.78221500     1.54605299     0.11209294     0.70301751    -1.36822025
O       5.87521799     3.37690800     1.28813099     1.60699201    -0.67522722     0.93550009
