# total energy = -4978.00663146 eV

CRYSTAL
PRIMVEC
        4.20545721     0.00000000     0.00000000
        0.00000000     2.19644044     0.00000000
        0.00000000    -0.00011585     5.85717368
PRIMCOORD
6 1
Ti      2.10272841     1.09816225     2.92858684     0.00000000     0.00000000     0.00000000
Ti      0.00000000     0.00000000     0.00000000     0.00000000     0.00000000     0.00000000
O       2.10272841     0.42803131     1.14147690     0.00000000    -0.80100178    -0.08041231
O       2.10272841     1.76829324     4.71569683     0.00000000     0.80100178     0.08041231
O       0.00000000     0.67008544     4.07006493     0.00000000     0.79949614    -0.07694543
O       0.00000000     1.52623911     1.78710875     0.00000000    -0.79949614     0.07694543
