# total energy = -19907.34245857 eV

CRYSTAL
PRIMVEC
        8.27991013     0.00000000     0.00000000
        0.00002772     4.24297283     0.00000000
        0.00000000     0.00000000    12.50962848
PRIMCOORD
24 1
Ti      3.00108574     2.51438185     4.64098294     0.28348351    -0.32327675     2.74970483
Ti      5.27885229     1.72859117     7.86864566    -0.28348351     0.32327675    -2.74970483
Ti      7.14089908     1.72859268     1.61378138     0.28299243     0.32337522    -2.75020054
Ti      1.13903902     2.51438053    10.89584741    -0.28299243    -0.32337522     2.75020054
Ti      3.00107195     0.39289550     1.61383155     0.28348351    -0.32327675    -2.74970483
Ti      5.27886615     3.85007765    10.89579725    -0.28348351     0.32327675     2.74970483
Ti      1.13902516     0.39289387     7.86859550    -0.28299243    -0.32337522    -2.75020054
Ti      7.14091287     3.85007928     4.64103311     0.28299243     0.32337522     2.75020054
O       2.62065369     1.49402293     6.38356767     1.27638530     1.15245782    -2.12470233
O       5.65928441     2.74895010     6.12606094    -1.27638530    -1.15245782     2.12470233
O       1.51936952     1.49404000     0.12879363    -1.27636550     1.15264577    -2.12604882
O       6.76056864     2.74893302    12.38083461     1.27636550    -1.15264577     2.12604882
O       5.65927055     0.62746368     0.12875305    -1.27638530    -1.15245782    -2.12470233
O       2.62066749     3.61550934    12.38087524     1.27638530     1.15245782     2.12470233
O       6.76055485     0.62744661     6.38360824     1.27636550    -1.15264577    -2.12604882
O       1.51938313     3.61552648     6.12602036    -1.27636550     1.15264577     2.12604882
O       0.30084526     2.58081664     3.37916273    -2.17600049     0.68581117     0.18102784
O       7.97909277     1.66215645     9.13046588     2.17600049    -0.68581117    -0.18102784
O       4.44081069     1.66211684     2.87569133    -2.17412590    -0.68574663    -0.18110189
O       3.83912735     2.58085625     9.63393709     2.17412590     0.68574663     0.18110189
O       0.30083147     0.45933016     2.87565138    -2.17600049     0.68581117    -0.18102784
O       7.97910663     3.78364286     9.63397703     2.17600049    -0.68581117     0.18102784
O       3.83911355     0.45936977     9.13050576     2.17412590     0.68574663    -0.18110189
O       4.44082455     3.78360326     3.37912279    -2.17412590    -0.68574663     0.18110189
