# total energy = -4988.15589866 eV

CRYSTAL
PRIMVEC
        3.80089429     0.00000000     0.00000000
        1.46187566     3.50852062     0.00000000
       -2.63142026    -1.75428384     4.95478117
PRIMCOORD
6 1
Ti      1.09630400     2.63152554     1.23869503     0.00035918    -0.00035918     0.00000000
Ti      1.53504580    -0.87728872     3.71608546    -0.00035918     0.00035918     0.00000000
O       0.36550843     0.87712556     0.80709324    -0.00024168    -0.00014681    -1.67897367
O       2.26584120     0.87711119     4.14768730     0.00024168     0.00014681     1.67897367
O      -0.36547560    -0.87710367     3.28448372    -0.00014681    -0.00024168    -1.67897367
O       2.99682517     2.63134038     1.67029687     0.00014681     0.00024168     1.67897367
