# total energy = -19960.32346801 eV

CRYSTAL
PRIMVEC
        5.93400000     0.00000000     0.00000000
        0.00000000     9.29699974     0.00000000
        0.00000000     0.00000000     4.64899994
PRIMCOORD
24 1
Ti      4.42396197     6.99081999     2.41364999     1.22990257    -0.76924221    -0.31876343
Ti      4.50021298     2.37990901     2.41082402    -0.09224196    -0.73210364    -0.85170446
Ti      1.46833299     6.96552500     2.25556601    -1.27566950    -0.65000957     0.01518314
Ti      1.57221900     2.28039702     2.27689000    -0.56923602     0.49707953     0.33814596
Ti      2.98130901     4.56388200     4.61019802    -2.41055872     1.19744289    -0.08397355
Ti      2.96865199     9.26934198     4.63706298     0.91777541    -0.31893441     0.75692045
Ti      5.82556000     4.64648699     0.13001398     2.40930119     1.25884831    -0.95214953
Ti      0.03307702     0.03390899     4.55092202    -0.71717427    -0.42884397     0.88595620
O       4.51223599     5.57260300     0.92332498    -1.25089537    -0.04018867    -0.03753735
O       4.47376300     0.98186399     0.82189800    -0.35448764    -0.84556749    -0.31780492
O       1.45504201     5.57727299     0.95967400     0.47678400    -0.65539809    -0.74389473
O       1.50523903     1.02560002     0.76595698    -0.29338586    -1.11041179     0.08527761
O       4.46690000     8.36913702     3.72400499    -0.18982359     1.21617441     1.05351788
O       4.43023802     3.82196200     3.69311702    -0.00797197    -0.88401990    -0.01000314
O       1.41422202     8.23414200     3.69773600     0.44479381     2.17216389     1.87270585
O       1.48168402     3.73240600     3.82978699     0.60423364    -0.16073952    -0.63585642
O       3.04956499     6.10792300     3.35274000    -0.89831910    -0.48815086    -0.36678009
O       2.91291999     1.44582300     3.20001400     0.46426170    -0.88599579     0.35918479
O       0.00895701     5.98049500     3.09738298    -0.10082328     0.12314586     1.05918022
O       0.05529701     1.45526601     3.18239202    -0.71065678    -0.63262120     0.25486841
O       3.00832102     7.92678998     1.42058601    -0.54027922     0.28453098    -0.50646483
O       2.94636098     3.09514302     1.40271099     0.80832917     1.78628615    -0.64083664
O       5.85592699     7.94461701     1.57276199     1.18865820     0.69303571    -1.70091290
O       5.77057001     3.27979699     1.40141000     0.86748410    -0.62648037     0.48574122
