# total energy = -19935.77078218 eV

CRYSTAL
PRIMVEC
        5.86219336     0.00000000     0.00000000
        2.67235555     5.63785970     0.00000000
        0.00000000     0.00000000    10.78195897
PRIMCOORD
24 1
Ti      3.70839850     3.34099041     4.00002985     0.95509987    -3.13932147     0.83389545
Ti      4.82615021     2.29686922     6.78192918    -0.95509987     3.13932147    -0.83389545
Ti      6.14448401     2.29687112     1.39090660    -2.38958005    -0.82390131     0.73677894
Ti      2.39006481     3.34098871     9.39105261     2.38958005     0.82390131    -0.73677894
Ti      2.37222087     0.52206064     1.39094981     0.95509987    -3.13932147    -0.83389545
Ti      6.16232788     5.11579915     9.39100939    -0.95509987     3.13932147     0.83389545
Ti      1.05388703     0.52205857     6.78188597     2.38958005     0.82390131     0.73677894
Ti      7.48066177     5.11580122     4.00007312    -2.38958005    -0.82390131    -0.73677894
O       2.79640297     1.98518622     5.50195114     1.56960430     2.05510280    -1.06848042
O       5.73814574     3.65267341     5.28000795    -1.56960430    -2.05510280     1.06848042
O       2.01670232     1.98520899     0.11100633     0.44726824    -1.06793535     1.36790504
O       6.51784647     3.65265073    10.67095247    -0.44726824     1.06793535    -1.36790504
O       4.40196808     0.83374353     0.11097130    -1.56960430    -2.05510280    -1.06848042
O       4.13258064     4.80411615    10.67098743     1.56960430     2.05510280     1.06848042
O       5.18166880     0.83372080     5.50198611    -0.44726824     1.06793535     1.36790504
O       3.35287986     4.80413889     5.27997292     0.44726824    -1.06793535    -1.36790504
O       1.83846513     3.42926590     2.91247611     0.63528897     2.30888826     2.17146609
O       6.69608352     2.20859374     7.86948297    -0.63528897    -2.30888826    -2.17146609
O       4.19094776     2.20854127     2.47853770     1.13963881     1.49655357     0.87118289
O       4.34360094     3.42931835     8.30342116    -1.13963881    -1.49655357    -0.87118289
O       0.50228746     0.61033596     2.47850326     0.63528897     2.30888826    -2.17146609
O       8.03226119     5.02752367     8.30345560    -0.63528897    -2.30888826     2.17146609
O       3.00742327     0.61038842     7.86951730    -1.13963881    -1.49655357     0.87118289
O       5.52712544     5.02747121     2.91244167     1.13963881     1.49655357    -0.87118289
