# total energy = -4978.15355844 eV

CRYSTAL
PRIMVEC
        4.38346598     0.00000000     0.00000000
        0.00000000     2.28941147     0.00000000
        0.00000000    -0.00012075     6.10509638
PRIMCOORD
6 1
Ti      2.19173278     1.14464530     3.05254819     0.00000000     0.00000000     0.00000000
Ti      0.00000000     0.00000000     0.00000000     0.00000000     0.00000000     0.00000000
O       2.19173278     0.44614904     1.18979338     0.00000000    -0.45242151     1.04685384
O       2.19173278     1.84314163     4.91530305     0.00000000     0.45242151    -1.04685384
O       0.00000000     0.69844884     4.24234281     0.00000000     0.45226570     1.04843815
O       0.00000000     1.59084182     1.86275357     0.00000000    -0.45226570    -1.04843815
