# total energy = -19961.27566116 eV

CRYSTAL
PRIMVEC
        7.60600008     0.00000000     0.00000000
        0.00000000     7.60600008     0.00000000
       -1.89786986    -1.89786986     4.85670466
PRIMCOORD
24 1
Ti      3.82223198     6.51955500     1.25213699     1.07817246    -0.05282976    -0.61967646
Ti      3.84667098     2.69562600     1.22664699     0.16466585     0.32727096     0.56060945
Ti      0.06222198     6.72103702     1.20650497    -1.22158684     0.14999024    -1.42518127
Ti     -0.01352101     2.91411900     1.25964501    -0.23939550    -0.34715151    -0.47622042
Ti      5.69033325     2.88644822     3.65566180    -1.45860511     0.27316439    -0.28790144
Ti      5.73943423    -0.80909979     3.63915883    -1.64140058    -0.29782153    -0.67507372
Ti      1.81482222     2.75299321     3.62578281     1.52521856     1.24530759     0.93329742
Ti      1.83830922    -0.95213376     3.60709582     2.01762999    -0.99971830     0.93011774
O       3.84686899     4.66285597     0.78294801    -0.11291852    -0.15726570     0.26371609
O       3.89003901     0.81190702     0.77037698    -0.48159248     1.59282060    -0.39943157
O      -0.03685000     4.75909998     0.73450300     0.49128529    -0.09824317     0.99290050
O      -0.06978001     1.06574203     0.72864601     0.96285869    -0.85207856     0.19641898
O       5.65088621     4.78956022     4.10209182     0.53571628     0.59539444    -0.26053461
O       5.40148825     0.99885725     3.94712279     1.41939448     0.16718116     0.97157834
O       1.92431222     4.67914220     4.08558281    -0.54750659     0.49713378    -0.82007731
O       1.93457122     0.90791221     4.10334882    -0.14811411    -0.40027797    -0.36961293
O       3.81826622     2.90611123     3.13961582     0.29248958    -0.02511480     0.45380142
O       3.81680024    -0.80978476     3.18440380    -0.56473891    -0.91230770     0.10083588
O      -0.04166377     2.85287324     3.28686579     0.54797813    -0.00682140    -0.54273411
O       0.03334822    -0.64463478     3.14723682    -0.46931135    -0.55169364     0.56116610
O       5.70700201     6.64799701     1.58476601     1.20072542    -0.28700824     0.67929342
O       5.78102999     2.72803102     1.63089200    -0.58975678     0.50462263     0.08369252
O       1.94192900     6.64926503     1.58376898    -1.34848420    -0.27075063     0.30902795
O       1.95237999     2.76098098     1.71942902    -1.41272349    -0.09380288    -1.16001199
