# total energy = -19947.64162176 eV

CRYSTAL
PRIMVEC
        4.99977707     0.00000000     0.00000000
        0.00002488     4.81448654     0.00000000
        0.00000000     0.00000000     8.54374146
PRIMCOORD
24 1
Ti      1.81219348     2.85306022     3.16966722    -0.49953108     1.54328288    -2.28305381
Ti      3.18760846     1.96142622     5.37407453     0.49953108    -1.54328288     2.28305381
Ti      4.31199488     1.96142788     1.10216953    -0.49695560    -1.54254086     2.28245783
Ti      0.68780712     2.85305881     7.44157237     0.49695560     1.54254086    -2.28245783
Ti      1.81218109     0.44581705     1.10220380    -0.49999130     1.54240973     2.28085371
Ti      3.18762091     4.36866954     7.44153809     0.49999130    -1.54240973    -2.28085371
Ti      0.68779467     0.44581529     5.37404030     0.49650437     1.54231228     2.28402903
Ti      4.31200727     4.36867134     3.16970149    -0.49650437    -1.54231228    -2.28402903
O       1.58246979     1.69526250     4.35980598    -0.91399280    -1.97289432     0.91836394
O       3.41733221     3.11922395     4.18393577     0.91399280     1.97289432    -0.91836394
O       0.91746557     1.69528197     0.08796261     0.91369430    -1.97320517     0.91871026
O       4.08233648     3.11920453     8.45577894    -0.91369430     1.97320517    -0.91871026
O       3.41731977     0.71198063     0.08793491     0.91389407     1.97271923     0.91785460
O       1.58248223     4.10250582     8.45580664    -0.91389407    -1.97271923    -0.91785460
O       4.08232404     0.71196121     4.35983373    -0.91411210     1.97362066     0.91909156
O       0.91747786     4.10252529     4.18390807     0.91411210    -1.97362066    -0.91909156
O       0.18166868     2.92844365     2.30787777     0.71928592    -0.12968032     0.20428656
O       4.81813331     1.88604284     6.23586398    -0.71928592     0.12968032    -0.20428656
O       2.68156164     1.88599803     1.96402027     0.71854390     0.12968315    -0.20380551
O       2.31824030     2.92848846     6.57972138    -0.71854390    -0.12968315     0.20380551
O       0.18165624     0.52120033     1.96399296     0.71902546    -0.13023825    -0.20383173
O       4.81814571     4.29328616     6.57974865    -0.71902546     0.13023825     0.20383173
O       2.31822791     0.52124514     6.23589124    -0.71879381    -0.12940341    -0.20422820
O       2.68157409     4.29324130     2.30785051     0.71879381     0.12940341     0.20422820
