# total energy = -19075.18592306 eV

CRYSTAL
PRIMVEC
        7.60600008     0.00000000     0.00000000
        0.00000000     7.60600008     0.00000000
       -1.89786986    -1.89786986     4.85670466
PRIMCOORD
22 1
Ti      3.79148102     6.62441200     1.18671099     0.75447919    -0.58337890     0.71010887
Ti      3.81113000     2.74109201     1.19936500     0.90264858     1.54632526     0.98389212
Ti      0.18786999     6.76858502     1.02557901    -0.91370304    -1.50259978     0.85851738
Ti      0.05602500     2.83453302     1.00838397    -0.68773564     1.63658207     1.73086395
Ti      5.74025821     2.83533620     3.57158681    -1.03087648     0.68867461     0.05621899
Ti      6.07646621    -0.88523480     3.63636583    -1.33129560    -0.92089699    -1.52362987
Ti      1.85440822     2.81825124     3.74130480     1.31166188    -0.83921173    -0.62178708
Ti      1.15221425    -0.98864180     3.97495079     3.26950752     0.43102272    -2.44771580
O       3.91200399     4.77620998     0.81784402    -0.49561143    -0.75104934    -0.16840321
O       3.89546398     0.90518399     0.82454102    -0.35570248    -0.01853792     1.49829498
O       0.15111201     4.76261499     0.68088702     0.22000244     0.13672386     0.04902710
O      -0.12005402     1.03342898     0.68114002     0.43207687    -0.61671095     1.10464069
O       5.50362025     4.83532124     4.07097080     0.93265825     0.29522754    -1.55357115
O       5.44356223     0.93018523     3.92773680     1.21000685     0.05432794    -0.11953397
O       1.84383521     4.78695323     4.20820980    -0.85265320     0.31374052    -1.36583607
O       2.15966422     0.85337521     4.09606983    -1.98244726     0.18593248     0.04958709
O       3.79036525     2.87128221     3.24813383    -0.38372263     0.22025646    -0.56282677
O       0.05600521     2.87289324     3.17317582     0.38859873    -0.27208658     0.30162419
O       5.83941798     6.59861001     1.72482102    -0.39529954     0.35898116     0.69796632
O       5.76431201     2.94537898     1.65637099    -0.13000274    -0.29814061    -0.41574779
O       1.96138003     6.63696599     1.87699202    -0.61342250     0.12274605     0.75802114
O       1.94479302     2.80661500     1.50012299    -0.24916750    -0.18792766    -0.01971086
