# total energy = -19961.29134689 eV

CRYSTAL
PRIMVEC
        7.60600008     0.00000000     0.00000000
        0.00000000     7.60600008     0.00000000
       -1.89786986    -1.89786986     4.85670466
PRIMCOORD
24 1
Ti      3.80451301     6.72014901     1.32467200    -0.89565415    -0.20356305    -1.15397478
Ti      3.78140601     2.91626799     1.19035401     0.11584084     0.00189465     0.90262544
Ti     -0.03146297     6.55929002     1.19516402     0.82956289    -1.24504740    -0.57831305
Ti      0.06989400     2.69932802     1.21959401    -0.31423006     2.08535853    -0.02123861
Ti      5.71578921     2.81755225     3.54626779     0.31777716    -0.44547850     0.52243627
Ti      5.71856422    -1.02747680     3.63076782     0.29175990     0.54678694    -0.29836969
Ti      1.92024724     2.91769423     3.70327384    -0.52252523     1.40760134    -0.65653889
Ti      1.86813524    -0.85802376     3.70267782    -0.40002909    -1.52875228    -0.65015278
O       3.78631402     4.78771101     0.75301600     0.18048200    -0.15972393     0.62301272
O       3.73375101     0.95908799     0.85052299     0.10097420     0.75809082     0.39163624
O       0.06047602     4.56360502     0.63784200    -0.46182069     1.02627806     0.52786593
O       0.13426899     0.85285799     0.71607498    -0.36047600     0.66503511     0.39974267
O       5.71132322     4.67068822     4.09618382    -0.26540222     0.91568896    -0.54392427
O       5.85121424     0.93390625     3.80305582    -0.59405772    -1.29887295     0.71228351
O       1.76583824     4.83167923     4.21609480     0.44698979    -0.19702705    -0.70584058
O       1.76701724     0.99872220     4.09493480     0.10466476     0.09134516    -0.64096186
O       3.78186322     3.07093121     3.13254083    -0.24877849    -0.56829577     0.75732540
O       3.72153622    -0.88178276     3.28920883     1.09537469    -0.05101610     0.30380346
O       0.01973323     3.08933425     3.16453980    -0.12721643    -1.02308244    -0.34888880
O      -0.05144979    -0.98423375     3.09186980     0.24441250     0.00078599     1.52380291
O       5.70394199     6.44018000     1.61436400    -0.74898885     0.39689440    -0.00355429
O       5.69348402     2.77462402     1.56953401     0.19917109    -0.10010671    -0.42760701
O       1.86925498     6.60591001     1.72211899     0.27852180    -0.11034562    -0.31618307
O       1.86268598     3.00411999     1.65960998     0.73364810    -0.96444815    -0.31898686
