# total energy = -19074.90223160 eV

CRYSTAL
PRIMVEC
        7.60600008     0.00000000     0.00000000
        0.00000000     7.60600008     0.00000000
       -1.89786986    -1.89786986     4.85670466
PRIMCOORD
22 1
Ti      3.74070101     6.43639400     1.05293699     0.47783070     0.88772049     1.53664789
Ti      3.78167901     2.81690702     1.19092102    -0.22473044    -0.71039170     0.68443537
Ti      0.05926103     6.76401002     1.08297400    -1.14774319    -1.00834024     4.53115860
Ti     -0.04810602     2.97146001     1.23160703    -0.51876962     0.71428255    -0.79738295
Ti      5.77452625     2.87882621     3.60899482    -1.48447813     0.08112245     0.01933805
Ti      5.95428024    -0.90022978     3.75046380    -1.08247468     0.87479863    -1.60534110
Ti      1.96226423     2.73232222     3.54160082     0.19213424     0.34494936     0.67278750
Ti      1.92524823    -1.00269580     3.75660480    -0.68012466    -0.74424388     1.58425471
O       3.38109702     4.58902802     0.67880101     0.69533634     1.28050369    -0.05053402
O       3.66750299     0.85866100     1.13657002     0.39797658    -0.21363150    -1.69371535
O       0.11239000     4.83103602     0.68010098    -0.39401708    -1.03416338     0.82717304
O      -0.18359900     1.06719700     0.77270399     0.26539837     0.12692178     0.57578797
O      -1.64977876     4.83685120     4.26793083     0.60047365     0.85674486    -4.79791682
O       5.66313221     1.09122821     3.83660481     0.37253525    -2.03149004     0.54043657
O       1.78289722     4.65625920     4.04183081     0.12008933     0.87216865     0.41932266
O       1.84060421     0.81813925     3.92839383     0.32250413     0.91240309     0.91168678
O       3.80289124     3.14511424     3.29428179    -0.37543777    -0.84120536    -0.35774240
O      -0.06596676     2.97455723     3.09313982     0.34762690    -0.21228578     0.72303793
O       5.60565197     6.29153501     1.88824000     0.13020277     0.99235517    -0.15654116
O       5.59081300     3.04327101     1.54924599     0.56825335    -0.06151109    -0.20811879
O       1.76247399     6.62107501     1.99056002     0.46673664    -0.18750959    -2.25004315
O       1.79327301     2.94466301     1.71200302     0.95067732    -0.89919841    -1.10873106
