# total energy = -4987.36119950 eV

CRYSTAL
PRIMVEC
        2.78176071     0.00000000     0.00000000
        0.65013374     4.30984193     0.00000000
       -0.00000408    -0.00005658     4.37098152
PRIMCOORD
6 1
Ti      1.71594493     2.15489259     2.18549071     0.00000000     0.00000000     0.00000000
Ti      0.00000000     0.00000000     0.00000000     0.00000000     0.00000000     0.00000000
O       1.51758092     0.83991363     0.85183989    -2.45079753     1.34809339     1.43051399
O       1.91430894     3.46987155     3.51914149     2.45079753    -1.34809339    -1.43051399
O       0.19836223     1.31495604     3.03733153     2.45060444    -1.34862715     1.43108786
O       0.45176702     2.99482924     1.33364984    -2.45060444     1.34862715    -1.43108786
