# total energy = -19954.26065222 eV

CRYSTAL
PRIMVEC
        5.84213081     0.00000000     0.00000000
        0.00002908     5.62562286     0.00000000
        0.00000000     0.00000000     9.98317616
PRIMCOORD
24 1
Ti      2.11750869     3.33373885     3.70368724     0.07228299    -0.34543015     0.21105242
Ti      3.72465120     2.29188390     6.27948926    -0.07228299     0.34543015    -0.21105242
Ti      5.03847228     2.29188584     1.28786113     0.07359477     0.34573251    -0.21173737
Ti      0.80368766     3.33373719     8.69531554    -0.07359477    -0.34573251     0.21173737
Ti      2.11749421     0.52092753     1.28790118     0.07228299    -0.34543015    -0.21105242
Ti      3.72466573     5.10469539     8.69527549    -0.07228299     0.34543015     0.21105242
Ti      0.80367313     0.52092548     6.27944927    -0.07359477    -0.34573251    -0.21173737
Ti      5.03848676     5.10469749     3.70372729     0.07359477     0.34573251     0.21173737
O       1.84908154     1.98087737     5.09433851     0.86623917     0.75725958    -0.09650459
O       3.99307840     3.64474537     4.88883799    -0.86623917    -0.75725958     0.09650459
O       1.07203857     1.98090012     0.10278240    -0.86576018     0.75740331    -0.09722527
O       4.77012143     3.64472268     9.88039387     0.86576018    -0.75740331     0.09722527
O       3.99306386     0.83193389     0.10275003    -0.86623917    -0.75725958    -0.09650459
O       1.84909608     4.79368886     9.88042624     0.86623917     0.75725958     0.09650459
O       4.77010689     0.83191119     5.09437093     0.86576018    -0.75740331    -0.09722527
O       1.07205294     4.79371161     4.88880562    -0.86576018     0.75740331     0.09722527
O       0.21227591     3.42182274     2.69670501     0.01140799    -0.13671409     0.18152741
O       5.62988403     2.20380006     7.28647149    -0.01140799     0.13671409    -0.18152741
O       3.13334649     2.20374770     2.29491499     0.01080738     0.13672617    -0.18177989
O       2.70881340     3.42187510     7.68826140    -0.01080738    -0.13672617     0.18177989
O       0.21226137     0.60901125     2.29488307     0.01140799    -0.13671409    -0.18152741
O       5.62989852     5.01661155     7.68829326    -0.01140799     0.13671409     0.18152741
O       2.70879892     0.60906362     7.28650335    -0.01080738    -0.13672617    -0.18177989
O       3.13336102     5.01655913     2.69667315     0.01080738     0.13672617     0.18177989
