# total energy = -4988.52183833 eV

CRYSTAL
PRIMVEC
        3.93816238     0.00000000     0.00000000
        1.33739126     3.70412035     0.00000000
       -2.63781275    -1.85208540     5.10714216
PRIMCOORD
6 1
Ti      1.00292991     2.77823234     1.27678559     0.00046846    -0.00046846     0.00000000
Ti      1.63481030    -0.92619787     3.83035667    -0.00046846     0.00046846     0.00000000
O       0.33438884     0.92602499     0.83191178    -0.00045431    -0.00056924    -1.40857888
O       2.30335118     0.92600935     4.27523059     0.00045431     0.00056924     1.40857888
O      -0.33435690    -0.92600261     3.38548285    -0.00056924    -0.00045431    -1.40857888
O       2.97209686     2.77803690     1.72165952     0.00056924     0.00045431     1.40857888
