# total energy = -19941.58879691 eV

CRYSTAL
PRIMVEC
        5.90220241     0.00000000     0.00000000
        0.31392258     6.27387931     0.00000000
        0.00000000     0.00000000    10.56694766
PRIMCOORD
24 1
Ti      2.32529464     3.71789491     3.92026221     0.04617677    -1.02498377     0.67513672
Ti      3.89083010     2.55598416     6.64668557    -0.04617677     1.02498377    -0.67513672
Ti      5.21816065     2.55598630     1.36316945     0.00660414     0.48542394    -0.50303883
Ti      0.99796416     3.71789301     9.20377845    -0.00660414    -0.48542394     0.50303883
Ti      2.16833348     0.58095550     1.36321180     0.04617677    -1.02498377    -0.67513672
Ti      4.04779127     5.69292376     9.20373610    -0.04617677     1.02498377     0.67513672
Ti      0.84100299     0.58095317     6.64664316    -0.00660414    -0.48542394    -0.50303883
Ti      5.37512182     5.69292608     3.92030462     0.00660414     0.48542394     0.50303883
O       1.97862171     2.20913946     5.39223251     1.36138600     1.33755932    -0.12118976
O       4.23750303     4.06473961     5.17471527    -1.36138600    -1.33755932     0.12118976
O       1.19359009     2.20916478     0.10879264    -1.13801619     0.94067804     0.21067061
O       5.02253472     4.06471435    10.45815484     1.13801619    -0.94067804    -0.21067061
O       4.08054186     0.92780001     0.10875838    -1.36138600    -1.33755932    -0.12118976
O       2.13558288     5.34607906    10.45818910     1.36138600     1.33755932     0.12118976
O       4.86557355     0.92777475     5.39226684     1.13801619    -0.94067804     0.21067061
O       1.35055114     5.34610444     5.17468095    -1.13801619     0.94067804    -0.21067061
O       0.40538616     3.81612891     2.85439623     0.40022475     0.05763618     0.51460700
O       5.81073864     2.45775017     7.71255161    -0.40022475    -0.05763618    -0.51460700
O       3.28852762     2.45769171     2.42911126     0.49723739     0.54766137    -0.09695299
O       2.92759718     3.81618736     8.13783634    -0.49723739    -0.54766137     0.09695299
O       0.24842500     0.67918931     2.42907754     0.40022475     0.05763618    -0.51460700
O       5.96769981     5.59468976     8.13787007    -0.40022475    -0.05763618     0.51460700
O       2.77063602     0.67924776     7.71258527    -0.49723739    -0.54766137    -0.09695299
O       3.44548879     5.59463131     2.85436245     0.49723739     0.54766137     0.09695299
