# total energy = -19516.78100484 eV

CRYSTAL
PRIMVEC
        5.93400000     0.00000000     0.00000000
        0.00000000     9.29699974     0.00000000
        0.00000000     0.00000000     4.64899994
PRIMCOORD
23 1
Ti      4.44966401     6.85248200     2.32192002     0.23173439     2.40072990     0.56474868
Ti      4.48405000     2.37704299     2.30762700    -0.55715338    -1.08779867     0.36437610
Ti      1.42239299     7.04049402     2.31247199    -0.18650044     1.21707944    -0.94677335
Ti      1.48053603     2.40403399     2.32592499     0.94518698    -1.42352162     0.84764546
Ti      2.99524902     4.62717202     0.02376397    -0.75814327    -1.24169622    -0.46799803
Ti      2.93610600     9.26522800     4.59062698    -1.37086849     1.25616845     0.85958644
Ti      5.92850503     4.74172201     0.08965898     0.68297241    -0.92336345    -1.15798647
Ti      5.78712299     9.19935501     4.55777100     1.49797925     1.33094387     0.46400202
O       4.53208299     5.73222302     0.94336402    -0.38263326    -2.03805150    -1.27929862
O       4.27995300     1.03387000     0.84346297     0.80434704    -1.15399714    -0.80168800
O       1.66847200     5.56403901     0.91627501    -0.83176169     0.83653212     0.38159505
O       1.44384002     0.76251801     0.82515402     0.28136749     0.89255108     0.25933956
O       4.34857200     8.31435098     3.63920000     0.58275900     0.16471419     1.66017298
O       4.55072400     3.59138201     3.96332000     0.01896138     1.12111272    -0.98347972
O       1.38725700     8.32193198     3.75735797     0.53603741    -0.39071784    -0.29361366
O       1.50890199     3.79262700     3.68538997     0.84099736    -0.10338333     0.71610726
O       3.02603602     1.42294201     3.06093002    -0.35926963    -0.41811758     0.92904019
O       0.28835900     5.96703903     3.34775298    -1.26194572     0.38035397    -0.71887685
O       5.93043102     1.30361101     3.20714799     0.06737733     0.94503271    -0.55075210
O       3.04884801     7.88130799     1.56196699    -0.50946634    -0.96232339    -0.22627413
O       3.01907099     3.46442201     1.48742703     0.20581971    -1.14240635     0.65260253
O       5.88729302     7.91097001     1.48134498     0.41015616    -0.72430497     0.17332713
O       0.12986502     3.18063500     1.41390499    -0.88795369     1.06446359    -0.44580246
