# total energy = -19072.63255885 eV

CRYSTAL
PRIMVEC
        5.17600016     0.00000000     0.00000000
        0.00000000     5.50899976     0.00000000
        0.00000000     0.00000000     9.26300011
PRIMCOORD
22 1
Ti      2.03633100     3.52056798     3.25422201     0.20138250    -0.33268545     1.13956014
Ti      3.50167202     2.09610702     5.84717800     0.41171553     0.93621074    -1.89418897
Ti      4.58618401     2.32641401     1.33842701    -2.05718283     0.06650521    -0.74003781
Ti      0.52746499     2.91919302     8.04432702    -2.48024849     0.47884834     0.42797031
Ti      1.90966401     0.61540499     1.47810102     0.41289592    -0.71738947    -2.48691717
Ti      3.08567700     5.11606898     8.10652000    -1.05661375     0.38022619     2.93090905
Ti      0.72368201     0.11713899     5.88161299    -0.10016456     0.51300778     0.62239103
Ti      4.58240701     4.93948000     3.39886002    -0.32319910    -0.39498716    -0.23186834
O       3.61791702     3.34262298     4.26403699     0.93229444    -0.10233200     2.43164331
O       0.78755699     1.90393402     0.28537000     2.21084795     0.06084904    -1.89651453
O       4.16208999     3.69390502     9.00117400     0.50894466    -0.46138412    -0.66231616
O       3.41488499     0.86386202     0.17654401     0.58625930     0.52866991    -0.83279399
O       1.63125301     4.90493901     0.05321301    -0.04691468    -0.75917068    -0.90340731
O       4.27209001     0.73487898     4.70921402    -0.25914364    -0.05477480     0.77596359
O       1.20104201     5.10990899     4.08132600     0.44629431    -0.45630516     2.11839259
O       0.52635801     3.51710399     2.23234000    -2.57226523     0.18410520     0.48189510
O       4.84913198     1.52464401     6.99876400     1.10005178    -0.49178717     0.29356173
O       2.77653498     2.25669501     2.11691400     0.08314539    -1.71960097    -0.25195998
O       1.50408002     3.95399902     7.01637201     2.04868276     1.88727475    -2.29516628
O       0.07607399     0.67650898     2.02904999    -0.44905696    -0.23328270     1.75590779
O       2.25500402     1.12356999     6.77626100    -0.70461108    -1.37252120     0.33290785
O       2.95822598     4.75886100     2.35916198     1.10688552     2.06052398    -1.11593246
