# total energy = -19961.55876988 eV

CRYSTAL
PRIMVEC
        7.60600008     0.00000000     0.00000000
        0.00000000     7.60600008     0.00000000
       -1.89786986    -1.89786986     4.85670466
PRIMCOORD
24 1
Ti      3.79759000     6.62018203     1.20228902    -0.99980006    -0.72393576     0.51094215
Ti      3.82316201     2.78858001     1.18426302    -1.70968756     1.04855951    -0.13186113
Ti      0.02420298     6.66878098     1.23283599     0.73496040     0.89576342     0.03537351
Ti     -0.06665898     2.96368698     1.19897002     2.12874154    -1.22273227     0.28738748
Ti      5.68014225     2.92192923     3.62843479     1.21146955    -1.10004175    -0.23908414
Ti      5.69785725    -0.95884679     3.63521884     0.12995209     0.84868676     0.83601996
Ti      1.94762824     2.83480422     3.66794379    -1.34070481    -1.03344579    -1.56836245
Ti      1.87829121    -1.04116576     3.71768079     0.01313037     1.16953613    -1.21356423
O       3.67285398     4.66382098     0.70839699     0.91120624     1.56065866     1.06895608
O       3.71197499     0.94907702     0.78162099     0.41580821    -1.44287483     0.42816083
O       0.05508100     4.79273502     0.74012598    -0.69858339     0.19838048     0.16533974
O       0.02961202     0.95870201     0.83675200    -0.38741037     0.10437911    -0.87444948
O       5.79698522     4.76610322     4.05697681    -0.43142947     0.53662234    -0.24593228
O       5.88209724     1.01706322     3.99934084    -0.96628803    -1.10128565     0.37059998
O       1.84940125     4.68380123     4.08418081     0.40294189     0.80966974     0.31166718
O       1.79900421     0.89292025     4.10320081     0.60451877    -0.14188664    -0.83899421
O       3.78344424     2.81975723     3.14595780     0.83330384    -0.11595911     1.20516623
O       3.74604723    -0.98475579     3.24441281     0.79675611    -0.04549132     0.03810325
O       0.00771223     2.80643021     3.15106081    -0.19607471     0.52114018     0.05062453
O       0.06204222    -1.03311375     3.15974779    -1.00438640    -0.03013103     0.43662901
O       5.66937100     6.63099301     1.68993998     0.02183099    -0.01456736    -0.52241365
O       5.71958902     2.90820301     1.62774499    -0.71917587     0.16842763    -0.47154229
O       1.90592601     6.66236401     1.57697699     0.36453808    -0.13815494     0.27805385
O       1.91419800     3.02416300     1.64011498    -0.11561715    -0.75131776     0.08318010
