# total energy = -4990.04729994 eV

CRYSTAL
PRIMVEC
        3.93340583     0.00000000     0.00000000
       -0.00000794     3.55879615     0.00000000
       -1.96673067    -1.77943380     4.79284026
PRIMCOORD
6 1
Ti     -0.00017194     2.66923083     1.19820983    -0.00049828    -0.00311515     2.70839876
Ti      1.96683885    -0.88986837     3.59462986     0.00049828     0.00311515    -2.70839876
O       0.00003996     0.88969234     0.78071443     0.00042192     0.00148327    -0.06159106
O       1.96662679     0.88967002     4.01212536    -0.00042192    -0.00148327     0.06159106
O      -0.00002017    -0.88967989     3.17713446    -0.00052039    -0.00018126     0.14822081
O       1.96668692     2.66904219     1.61570533     0.00052039     0.00018126    -0.14822081
