# total energy = -4924.54793753 eV

CRYSTAL
PRIMVEC
        5.21791924     0.00000000     0.00000000
       -0.00000682     2.23625125     0.00000000
       -2.60898955    -1.11820652     5.66260660
PRIMCOORD
6 1
Ti     -0.00022296     1.67725788     1.41565160    -0.03695319    -0.02938901    66.70246670
Ti      2.60914557    -0.55921310     4.24695490     0.03695319     0.02938901   -66.70246670
O       0.00005544     0.55904911     0.92239234     0.03608442     0.02920106   -59.11313917
O       2.60886702     0.55899562     4.74021421    -0.03608442    -0.02920106    59.11313917
O      -0.00002182    -0.55908958     3.75369564    -0.00106624     0.00007893    -0.66087583
O       2.60894422     1.67713426     1.90891091     0.00106624    -0.00007893     0.66087583
