# total energy = -19953.66559083 eV

CRYSTAL
PRIMVEC
        6.13067879     0.00000000     0.00000000
        0.00002590     4.82274939     0.00000000
        0.00000000     0.00000000     9.76098506
PRIMCOORD
24 1
Ti      2.22209156     2.85795686     3.62125584     0.14366841     0.48012953    -0.79581972
Ti      3.90861318     1.96479269     6.13972928    -0.14366841    -0.48012953     0.79581972
Ti      5.28732507     1.96479437     1.25919772     0.14440606    -0.48016989     0.79628071
Ti      0.84337967     2.85795540     8.50178751    -0.14440606     0.48016989    -0.79628071
Ti      2.22207872     0.44658227     1.25923685     0.14339125     0.48040026     0.79561788
Ti      3.90862603     4.37616744     8.50174837    -0.14339125    -0.48040026    -0.79561788
Ti      0.84336683     0.44658043     6.13969014    -0.14455570     0.48020177     0.79632108
Ti      5.28733791     4.37616928     3.62129497     0.14455570    -0.48020177    -0.79632108
O       1.94040770     1.69817208     4.98095597     0.90904111    -0.04016193     0.38624154
O       4.19029710     3.12457748     4.78002915    -0.90904111     0.04016193    -0.38624154
O       1.12498584     1.69819153     0.10049483    -0.90896321    -0.04028534     0.38618138
O       5.00571901     3.12455808     9.66049001     0.90896321     0.04028534    -0.38618138
O       4.19028426     0.71320273     0.10046316    -0.90920772     0.03979298     0.38595975
O       1.94042054     4.10954683     9.66052168     0.90920772    -0.03979298    -0.38595975
O       5.00570617     0.71318333     4.98098763     0.90859914     0.04064838     0.38640147
O       1.12499857     4.10956628     4.77999748    -0.90859914    -0.04064838    -0.38640147
O       0.22275751     2.93346956     2.63668558    -0.25256496    -0.08111088     0.45858727
O       5.90794729     1.88927999     7.12429953     0.25256496     0.08111088    -0.45858727
O       3.28810351     1.88923501     2.24383802    -0.25276936     0.08141118    -0.45934446
O       2.84260129     2.93351459     7.51714694     0.25276936    -0.08141118     0.45934446
O       0.22274466     0.52209486     2.24380684    -0.25269197    -0.08134845    -0.45924213
O       5.90796013     4.30065474     7.51717811     0.25269197     0.08134845     0.45924213
O       2.84258845     0.52213985     7.12433066     0.25260969    -0.08150606    -0.45868240
O       3.28811635     4.30060971     2.63665440    -0.25260969     0.08150606     0.45868240
