# total energy = -4927.40328238 eV

CRYSTAL
PRIMVEC
        5.81786620     0.00000000     0.00000000
       -0.00000755     2.20677653     0.00000000
       -2.90896798    -1.10349301     6.42083309
PRIMCOORD
6 1
Ti     -0.00024859     1.65514485     1.60520799    -0.03652845    -0.02469340    65.88464476
Ti      2.90913932    -0.55186161     4.81562459     0.03652845     0.02469340   -65.88464476
O       0.00006177     0.55167657     1.04590116     0.03446385     0.02381331   -61.14022259
O       2.90882880     0.55160661     5.37493149    -0.03446385    -0.02381331    61.14022259
O      -0.00002522    -0.55173735     4.25631770    -0.00139688     0.00024271    -0.96322713
O       2.90891567     1.65502048     2.16451494     0.00139688    -0.00024271     0.96322713
