# total energy = -39033.72354333 eV

CRYSTAL
PRIMVEC
        5.93200024     0.00000000     0.00000000
        0.00000000     9.29399984     0.00000000
        0.00000000     0.00000000     9.29399984
PRIMCOORD
46 1
Ti      4.53100601     7.07273801     6.90724603     0.03646803    -1.87263360     0.95692870
Ti      4.54154701     7.04013497     2.33396600    -0.95905732    -0.52945667     0.83302154
Ti      4.40843798     2.31169499     6.87032501     2.05106694     0.24254588     0.63649996
Ti      4.23255200     2.36289501     2.14106401     0.30576676     1.68116605     1.70276204
Ti      1.65469699     6.89162699     6.87842100    -1.68142290    -0.40782776     0.64646042
Ti      1.52122103     7.02033999     2.40218700     0.69478972    -1.42784210    -0.16033148
Ti      1.56106998     2.41089901     7.05250698    -1.49402798    -0.25908348     0.08059023
Ti      1.16917200     1.99106401     2.43480999     1.43367517     2.07773186    -0.37495928
Ti      2.93877803     4.56409398     4.73945100     0.78137577     0.67251085    -3.82485007
Ti      2.97150102     4.86018199     9.15782099    -1.19973914    -0.36742698    -0.90434293
Ti      3.01432199     9.23498700     4.65415598    -0.21771287     1.43766603    -0.70921413
Ti      2.82735399     9.17284100     9.07506799     0.60754239    -0.31709093     1.52709803
Ti      5.91558702     4.60592402     4.77729098    -0.09436466    -0.35330776    -2.14485131
Ti      5.83625800     4.80198498     0.04606901     1.77234074    -1.31780296    -0.93278500
Ti      0.03656599     9.09515101     4.81807001     0.41352224     1.14997260    -0.41282599
Ti      5.79446099     0.22262799     9.25962999     1.75041488    -0.27678347     0.23843828
O       4.55749297     5.39415798     5.75445699    -0.74218828     0.74970491    -1.20639676
O       4.41950598     5.70099500     0.76477299    -0.11928895     0.07387142     1.33205613
O       4.54408299     0.96419201     5.45053398     0.16669239    -0.23064475    -0.21655587
O       4.59244899     0.87307002     1.10519103    -0.76862078    -0.30651881    -0.74591947
O       1.51376201     5.44789900     5.60205002    -0.51674051     1.04968668     0.41936071
O       1.54880502     5.72859001     0.84712298    -0.28984160    -0.65737913    -0.11201504
O       1.48788799     0.83410601     5.69869202     0.04211006     0.07783375    -1.22984806
O       1.59534399     0.89251601     0.74028098    -0.51706652     0.49129840     1.11574529
O       4.61364000     8.42404900     8.43047300    -1.38761178    -0.47216579    -0.45423002
O       4.55650003     8.06783498     3.94876001    -0.64048672     2.54217585     0.52677578
O       4.43906602     3.85277101     8.24120699    -0.23372905    -0.22567378     1.15804972
O       4.29117002     3.60015402     3.69966998     1.01104556     0.49634496     0.05483342
O       1.55874303     8.25329599     8.27242400    -0.48145827     0.49072273     0.72784975
O       1.57353602     8.37946698     3.77331600    -0.75694925     0.79736752     0.67924560
O       1.51705799     3.78567102     8.51366099     0.76654384    -0.39970590    -0.84066234
O       1.43260400     3.72464799     3.68273901    -0.09619349    -1.00355053    -0.01649878
O       3.12869000     6.06594199     7.70958701    -1.48725363    -0.19039155     1.13186431
O       3.06598202     6.00627900     3.31009699    -0.58473927     0.12835235    -0.08711338
O       3.04648200     1.31826800     7.77726798     0.36280876     0.29002826     0.35652935
O       2.88050900     1.41723299     3.17344099    -0.56857808    -0.24795985    -0.30356563
O       5.91190198     6.08398302     7.84026098     0.75375774     0.04787447     0.31727708
O       0.05734001     6.14322600     3.30361103     0.03554757    -1.41286002     0.02434784
O       0.05878799     1.59116000     7.92406302    -0.67433967    -1.07014573     0.51618592
O       2.96194302     7.99519302     6.04679699     0.38184239    -1.02858049     0.68402528
O       2.97982101     7.92080303     1.55697399     0.59408343     0.58989176    -1.12885792
O       3.03572198     3.24192901     6.04484898    -0.81899513    -0.79119738     0.75936429
O       5.91228902     7.93259299     6.19841299     2.30235457     0.41364154    -0.94847414
O       0.04040099     7.99878401     1.65432101     0.24554199     0.47716170    -1.47416337
O       0.14301603     3.22374400     6.03147900    -0.29831955    -0.48636805     0.34940431
O       5.83869502     3.17338098     1.27183598     0.11943370    -0.32515185     1.45374623
