# total energy = -19517.54505445 eV

CRYSTAL
PRIMVEC
        5.93400000     0.00000000     0.00000000
        0.00000000     9.29699974     0.00000000
        0.00000000     0.00000000     4.64899994
PRIMCOORD
23 1
Ti      4.46392698     6.97252798     2.19701001    -0.88959200     1.64477413    -0.55511938
Ti      4.48322501     2.27328101     2.35316101     1.20813766     0.37454791    -0.33145646
Ti      1.40032598     7.00813102     2.35897698     0.91598798     0.85214335    -0.87198199
Ti      1.50466302     2.33891899     2.39561600    -1.09656845     0.55382405    -0.80986411
Ti      2.92615900     4.52097202     0.12195202     0.39739294    -0.15497022     0.42064909
Ti      2.90971302     0.14449502     4.63625799     1.43407189    -1.72243098     0.39234560
Ti      5.91865100     4.67654002     0.00448001    -0.15773390    -0.58087618     0.18301736
Ti      5.92580998     9.27842499     4.60888402    -1.07408851    -0.27531460    -0.46448436
O       4.39711602     5.51948297     0.93578800    -0.31107017     0.66166387    -0.30969669
O       4.48827701     0.91474299     0.89560900     0.19394867    -0.00672292     0.32729821
O       1.47771498     5.53291497     0.89269202     0.83688205     0.45192220    -0.18571265
O       1.48869001     0.92911201     0.79151301    -0.27930084     0.60290463     1.23077983
O       4.48945898     8.51141701     3.59081298     0.35561918    -0.69653910     0.54526048
O       4.56117700     3.65722198     3.96604802    -1.36663363    -0.25632751    -2.14542800
O       1.62170898     8.35192902     3.70660601    -1.04174840    -0.31249534    -0.16224953
O       1.41619702     3.60998798     3.81815102     1.07257619     1.32762766    -0.21912029
O       2.97412802     1.47865401     3.27749502     0.37603555     0.05171159    -0.52647573
O       5.87417202     6.03626001     3.01676902     0.41880432    -1.14761052     2.14729463
O       0.06730600     1.48486702     3.23835903    -0.17012867    -1.06806622     0.03120009
O       2.94341198     7.86702301     1.33197697     0.17686882    -0.69781205     0.81871874
O       3.08980500     3.23006502     1.40786999    -0.83262430    -0.40920665     0.84253128
O       0.01769902     7.87048102     1.41105701     0.05280919     0.84192321    -1.08830929
O       0.06269602     3.24145598     1.41472601    -0.21964582    -0.03467057     0.73080292
