# total energy = -39020.80757159 eV

CRYSTAL
PRIMVEC
        7.60600008     0.00000000     0.00000000
        0.00000000     7.60600008     0.00000000
       -3.79573973    -3.79573973     9.71340985
PRIMCOORD
46 1
Ti      2.11414746     3.91117244     6.30029962    -1.04869398    -1.14916758     2.11784828
Ti      3.81466602     0.05457902     1.66522402    -0.78430271    -2.57517006    -2.50958942
Ti      1.84451943     0.73690043     6.19624363     0.43882011    -2.05167295    -1.94531871
Ti      3.92840801     3.27117098     1.35772102     0.81883495    -0.66462784    -1.15844747
Ti     -1.79963753     3.85768046     6.54480861     0.66303479     0.60603392    -1.76516916
Ti     -0.12915100     0.06638597     1.48689002     1.74953582    -0.19532344    -2.44352747
Ti     -1.96726358     0.52406042     6.30458262     1.82879885    -0.49381937    -3.08132456
Ti     -0.16188299     3.56729402     1.09348700     0.01661550    -2.88662307     1.18691859
Ti      3.86054447     1.87528045     8.52828062    -0.62915432     2.96349523     1.23350982
Ti      5.50626402     1.86954401     3.32135497     2.14699843     0.33635210     1.18768452
Ti      3.82100043    -2.06740254     8.26863764     0.77968861    -1.65406095     3.70285041
Ti      5.68098999     5.84982103     3.54628399    -1.21480710    -1.46319298     3.54455833
Ti     -0.07497754     2.10586547     8.22849261     1.67573228     0.95048551     1.60752808
Ti      1.65624002     1.76609002     3.43077899    -0.51225444    -2.23809934    -1.53054666
Ti      0.13942947    -1.37953556     8.11113163    -1.37058413    -0.62618032     1.10349835
Ti      1.83875701     5.94457000     3.45253600    -0.23920884     1.44720072     0.21599254
O       1.93484602     4.52765902     4.71236500    -0.31205414     2.62480857    -1.29699630
O       0.23581747    -2.05364356     9.69742362    -1.59521121     0.69207335     1.42393197
O      -1.75260753     2.00028646     5.25030061    -0.39575334     4.03768170    -1.36234528
O       0.10409800     5.43434402     0.64885201     0.59589812     0.23169145     1.09815842
O      -1.68746058     5.36385247     5.38049663    -0.05923670    -0.63025861     0.25198826
O       0.66696903     1.85489898     0.56766701    -0.91606820     0.19227925    -0.68378925
O       3.80552543     3.74647746     9.15133662    -1.21281861    -0.29165191     0.58267441
O       5.33310198     3.83235499     3.38324098    -0.42831304     0.65060581    -0.32809782
O       3.28208447    -0.37359353     9.15436764    -0.54050573     1.09273005    -3.70360940
O       5.44521999     0.03041499     4.46213301    -0.96878355    -1.20387656    -1.29607996
O       0.40420146     3.26920646     9.66052065    -1.97245852    -2.98017192    -0.11164891
O       2.17321047     2.25660944     5.13673161     0.08033646    -0.27397325     0.04530748
O       0.21440246     0.32196943     9.34022464    -0.85305378     0.57006520    -0.36986387
O       1.62652402    -0.03257001     4.30368401     0.90037444    -0.60299668     2.74982053
O       1.64556847     1.86463843     7.49727263     4.00156283     2.27128432     3.97990539
O       3.76227901     1.62779701     2.59681400     0.39114721     0.69595855     1.90823902
O       1.80918547    -2.01701756     7.57573062     2.13000781     0.46813044    -1.67040186
O       3.71840799     6.05516302     3.02797000     0.03885350     0.44810617    -1.69525287
O      -1.79803058     2.04485546     7.54060261    -0.18901626     0.88052191     3.50709760
O      -0.23570698     1.32901702     2.81076402     1.45738255     2.38012096     2.97783530
O      -1.95891956    -2.55540054     7.95569962     0.50920614     1.96260013    -0.21511245
O      -0.18369700     6.10615703     3.23848000     1.30354413    -0.21870429    -1.92438376
O       3.93465246     3.49207846     6.80547762    -1.59134761     1.28374431    -0.72429520
O       5.68474201     0.37557398     1.53558898     0.01508467    -1.71654881     1.61409083
O       4.05367543     0.78812448     7.15033264    -2.65677536    -3.60767893    -3.19266596
O       5.78364699     2.72357900     1.38447099    -0.01902694     1.42351828     0.46341658
O       0.12825145     3.68901547     7.12206765    -0.38274921     0.47996677    -1.50314614
O       1.88285901     0.11337501     2.04812800    -0.09770736    -1.12861572    -1.23880167
O       0.03727546     0.93168746     6.37440660    -0.92066096    -3.37310142     0.64170876
O       2.07943598     3.06417298     2.30833699    -0.63091090     3.33606081    -1.39414932
