# total energy = -19516.78265249 eV

CRYSTAL
PRIMVEC
        5.17600016     0.00000000     0.00000000
        0.00000000     5.50899976     0.00000000
        0.00000000     0.00000000     9.26300011
PRIMCOORD
23 1
Ti      1.95553002     3.16605098     3.31662302    -0.95778693     0.01798693     2.74783333
Ti      3.38804200     2.22003901     5.88722899     0.91194440     1.16365473    -2.98932660
Ti      4.23909602     2.18377502     1.49231800     0.69656815    -0.56244677    -0.97653851
Ti      0.88386000     3.40134699     7.84670498    -3.47553807     1.44470135     0.80447200
Ti      1.89008498     0.00231499     1.46580299    -0.93473133     1.90390620     0.63006475
Ti      3.32699198     5.25419203     7.93086300    -0.00625884     0.49594104     1.74032304
Ti      0.74874400     0.66647001     5.87306403    -0.95159006    -0.64974424    -3.52432091
Ti      4.48664699     4.84737400     3.36620899     1.26954102     1.11608287     2.47417889
O       1.67878302     2.07912001     4.88034798    -0.41137434    -0.47896122    -0.59647147
O       3.51572400     3.59242200     4.58796999     0.19387102     0.64158869    -0.77574042
O       5.00842502     3.16861098     0.06410601    -0.48957190    -0.76766818     0.39336813
O       3.76039598     0.82175602     0.10976999    -0.56059429    -0.45779177    -0.66774993
O       1.74608098     4.86213201     9.10654102    -0.31618821    -0.81145794    -2.24257537
O       4.32187400     0.82535098     4.70213299    -0.86913578     0.62251599     0.82628807
O       0.98409400     4.87497900     4.23727703     1.47173830    -0.59689056     1.02369616
O       0.15995203     3.28318600     2.66302699     0.43212855    -1.13110301    -0.78936573
O       5.05440301     2.05352698     6.89206001     0.07205622     0.37566479     0.16427324
O       2.36067601     1.74929700     2.12394000     1.49410897     0.05855201    -0.41268175
O       2.52362101     3.42056602     7.12789997     1.75100161     0.92917826     0.56348164
O       0.13760302     0.61312900     2.15223600    -0.64767655     0.25489489    -1.09569145
O       4.96494898     4.88365402     7.05297498     1.05151293    -1.05267302     0.45266551
O       2.41487699     0.91536398     6.79835003    -0.08292119    -2.26472621     1.84687808
O       3.07863100     4.23252702     2.06703301     0.35889605    -0.25120484     0.40293855
