# total energy = -4985.84926167 eV

CRYSTAL
PRIMVEC
        3.62534918     0.00000000     0.00000000
        1.55278998     3.27597313     0.00000000
       -2.58910390    -1.63800828     4.75460871
PRIMCOORD
6 1
Ti      1.16450091     2.45710593     1.18865213     0.00069985    -0.00069985     0.00000000
Ti      1.42453460    -0.81914089     3.56595629    -0.00069985     0.00069985     0.00000000
O       0.38823515     0.81898898     0.77448685     0.00040855     0.00049391    -2.25199513
O       2.20080022     0.81897594     3.98012162    -0.00040855    -0.00049391     2.25199513
O      -0.38820248    -0.81896835     3.15179106     0.00049391     0.00040855    -2.25199513
O       2.97723780     2.45693324     1.60281741    -0.00049391    -0.00040855     2.25199513
