# total energy = -19961.19270409 eV

CRYSTAL
PRIMVEC
        7.60600008     0.00000000     0.00000000
        0.00000000     7.60600008     0.00000000
       -1.89786986    -1.89786986     4.85670466
PRIMCOORD
24 1
Ti      3.73140702     6.69312302     1.26452698     0.36878118     0.48552653     1.41645108
Ti      3.76000301     2.96442402     1.21689902     0.25049882    -0.29627321    -0.49247597
Ti      0.05101798     6.52069602     1.18290600    -0.14085742     0.92265562     0.05861912
Ti      0.03762598     2.80160697     1.11438199    -0.10669542    -0.81547992     0.27558842
Ti      5.70101024     2.83010322     3.54039282     0.65400738    -0.45249324     0.03997784
Ti      5.71150722    -1.04599477     3.58144681    -0.30421612     0.44765468     0.63140712
Ti      1.89359422     3.02359720     3.72110383    -0.17597099    -2.26097368    -1.32239315
Ti      1.81785324    -0.96059377     3.71331879     0.62185907     1.84708017    -0.31630468
O       3.75178902     4.87101298     0.95384898     0.21995436    -0.96764275    -1.15897455
O       3.73176501     1.08222399     0.80561198     0.02263009    -1.11268284     0.23349662
O       0.08340802     4.70132901     0.72890700    -0.05776680    -0.05545023    -0.51645074
O       0.26180801     0.86114501     0.76523401    -0.73528667    -0.15977329     0.01727808
O       5.82567223     4.69843822     4.02087983    -0.41117894    -0.24736104     0.33375194
O       5.72815122     0.87356321     4.00532684     0.03198582     0.65574776    -0.38297856
O       1.74403021     4.84243122     4.12988780     0.27212900    -0.52295049     0.53916516
O       1.87904121     1.11615521     4.04581583    -0.26229504    -0.49524453     0.98805166
O       3.80929625     2.98748922     3.33568679     0.10095620     0.06462547    -0.72962664
O       3.80079221    -0.95192579     3.28081079    -0.40690551     0.15444005    -0.22105556
O      -0.02808375     2.86745123     3.05086481    -0.03140552     0.10535408     1.41672979
O       0.01371421    -1.03641979     3.24596579    -0.05574925     0.59141437    -0.65937019
O       5.68457998     6.48595701     1.62882202     0.49957427     0.66377655    -0.26045285
O       5.74506102     2.86048398     1.44911602    -1.10682047    -0.15066284     1.04443340
O       1.89705102     6.35449901     1.72366498    -0.05430660     1.11103194    -0.15480052
O       1.91121799     2.85762801     1.77300901     0.80707807     0.48768137    -0.78006656
