# total energy = -19071.00189757 eV

CRYSTAL
PRIMVEC
        5.17600016     0.00000000     0.00000000
        0.00000000     5.50899976     0.00000000
        0.00000000     0.00000000     9.26300011
PRIMCOORD
22 1
Ti      1.68194898     3.50575102     3.27959903     1.75245299     0.60653863    -1.58914597
Ti      3.84994801     2.35589003     5.87414498    -0.85262312     0.16616557    -0.51875497
Ti      4.22232200     2.40789698     1.48313101     0.09943334    -0.46259588    -0.57021124
Ti      1.32881001     2.43230698     7.83627098    -1.31380129     0.67989634    -2.24428824
Ti      1.60136698     0.69882401     1.55001499     0.64916419     0.22597254    -1.01856166
Ti      3.19848298     0.07986301     7.90458300    -0.03560054    -0.38435641     0.56365518
Ti      0.65521298     5.18610702     6.47550999     0.64839826     0.75211892    -0.58052523
Ti      4.35015302     5.03989302     3.55563899    -0.26350166    -0.54442590     0.22387401
O       3.45527799     3.32454702     4.06891198     1.59397811     0.16943088     2.78214728
O       0.99329999     2.27212598     0.32729502    -0.52906664    -0.70278946     0.78446341
O       5.07325098     3.54746702     6.88589902    -0.21748276    -1.13798019    -0.01413233
O       3.37005801     0.79658798     0.34530699     0.09742865     0.80101592     0.12373953
O       1.52065798     5.06143900     8.26772697    -2.06302489    -1.07705711     0.84446038
O       4.23078201     0.69178702     4.91890998     0.22663691     0.19756467     0.77437105
O       1.00106101     4.54343602     4.52335400    -1.37806758     0.34238571     1.85092294
O       5.13350998     4.01785400     2.04602500     1.13059058    -0.07284581    -0.25032784
O       4.67009501     1.07704700     7.29699698     1.55287387     1.04100380    -0.36176463
O       2.62225700     1.89678198     2.50688800    -1.16945077     1.17566975    -1.03403714
O       2.55635798     3.38504199     6.64301200    -0.03114918     2.16475139     1.13369956
O       5.13208099     1.34065998     2.53005401     1.39043536    -1.83966819     0.96577330
O       2.07472402     1.18659500     6.55778801     0.74339902    -1.33784832    -0.34748164
O       2.74481398     5.05604600     2.62059401    -2.03102261    -0.76294738    -1.51787600
