# total energy = -19960.44165540 eV

CRYSTAL
PRIMVEC
        5.93400000     0.00000000     0.00000000
        0.00000000     9.29699974     0.00000000
        0.00000000     0.00000000     4.64899994
PRIMCOORD
24 1
Ti      4.44898899     7.07843301     2.41336100     0.53948346    -1.55577844    -1.31127338
Ti      4.47649001     2.20999200     2.23731098    -0.67276256     1.38493474     1.05860687
Ti      1.45768298     6.98310702     2.44737800    -0.59855792    -1.56471251    -1.42218053
Ti      1.50118198     2.37295202     2.24567098     0.70600308     0.77366888     0.34331259
Ti      2.97932602     4.64109398     4.59619202    -0.83823188    -0.25116833     0.35094337
Ti      2.99075599     9.21976902     0.02120302    -1.85780733     0.75665563     1.12483980
Ti      5.85356099     4.64816300     0.08759402     0.90412902     0.21934758    -0.36842816
Ti      0.00474598     0.01013703     4.59729398     1.07008505     1.17581759     0.91858968
O       4.46559499     5.59194999     0.85664700    -0.26316356     0.66831326     0.35639771
O       4.46143799     0.87892902     0.94777699    -0.35871428    -0.50852737    -0.93132796
O       1.51177802     5.65407497     0.86274498    -0.22933477    -0.36749434     0.33599137
O       1.55849003     0.98994299     0.73815300    -0.35585212    -0.11704000     0.62801146
O       4.43375202     8.37703600     3.83109501     0.13136774    -0.10543275    -0.77066660
O       4.48612802     3.62965300     3.89170100    -0.02671377     0.19683627    -1.07635520
O       1.35760402     8.38789403     3.81958499     1.95445153    -1.16860153    -0.52546992
O       1.48275799     3.76034597     3.76420098     0.00580710    -0.32298236    -0.62472971
O       3.00320102     6.04363098     3.18494599    -0.07307618     0.61986929    -0.02638467
O       2.92990102     1.52450102     3.10620002     0.50839984    -1.51514908     1.00829473
O       5.83840800     6.02751599     3.16359300     0.51695879     0.39254923     0.16576294
O       0.16131402     1.26032802     3.12853099    -1.36193365     0.76042641    -0.14232193
O       2.92381099     7.84506300     1.36555698     0.24856972     0.94018850     0.31509935
O       3.01994699     3.24175798     1.33957702    -0.12936305    -0.25384382     0.80348906
O       0.04614500     7.94149899     1.55310300    -0.47660660     0.41081770    -0.65154401
O       5.84825302     3.29685698     1.46253500     0.65686234    -0.56869481     0.44134313
