# total energy = -4987.31160128 eV

CRYSTAL
PRIMVEC
        4.03360210     0.00000000     0.00000000
        1.55137825     3.72332801     0.00000000
       -2.79252762    -1.86168897     5.25813512
PRIMCOORD
6 1
Ti      1.16342465     2.79263935     1.31453350     0.00024066    -0.00024066    -0.00000000
Ti      1.62902820    -0.93100027     3.94360090    -0.00024066     0.00024066     0.00000000
O       0.38788650     0.93082713     0.85650712    -0.00056050    -0.00076593    -1.75208944
O       2.40456617     0.93081187     4.40162734     0.00056050     0.00076593     1.75208944
O      -0.38785166    -0.93080390     3.48557456    -0.00076593    -0.00056050    -1.75208944
O       3.18030426     2.79244285     1.77255995     0.00076593     0.00056050     1.75208944
