# total energy = -39034.01412866 eV

CRYSTAL
PRIMVEC
        5.93200024     0.00000000     0.00000000
        0.00000000     9.29399984     0.00000000
        0.00000000     0.00000000     9.29399984
PRIMCOORD
46 1
Ti      4.38897399     7.03595802     6.83619398    -0.44165347     0.12871127     0.91172869
Ti      4.45313102     6.84758701     2.30439198     1.45813228    -0.26872795     0.51115041
Ti      4.43146200     2.25787301     7.06813501     0.58298217    -0.54732045     0.31487952
Ti      4.38855801     2.62982900     2.05192199     0.88697770    -1.37284798     0.91888819
Ti      1.44664900     6.88825502     7.07770201    -0.04394608     0.32106380     0.51826311
Ti      1.56670799     7.08252398     2.25606201    -1.40109336    -1.18568035    -0.25266317
Ti      1.49815302     2.41059298     6.83058999    -0.78262224    -0.79572381     0.96259078
Ti      1.41078999     2.08948003     2.61741900    -0.24573970     0.76042333    -2.05211055
Ti      3.00650001     4.58697402     4.69500101    -0.20370498     0.86888330    -1.00750540
Ti      2.93187999     4.86371901     9.11316801     0.52461554    -0.24155857     1.50105403
Ti      2.95901001     9.23603800     4.71256498     1.13194144    -0.19022571    -0.01626095
Ti      3.00331400     0.13649900     9.28524502    -0.82819840    -0.55897886     0.97979636
Ti      0.03756201     4.60700200     4.73640198     0.25085569     1.50303918    -1.56641459
Ti      0.03217101     4.58234398     9.18393198    -0.37461501     0.69487534     0.65861043
Ti      0.00921700     9.11767602     4.86216101    -0.74620435     0.65229528    -0.78387668
Ti      5.91131100     9.23602202     9.17601400     0.86181739    -0.36038961     1.17589627
O       4.37952701     5.68315998     5.56510102     0.33521387    -0.82424996    -0.57792713
O       4.53436100     5.64431298     0.69783900    -0.11081844    -1.58603442     1.00497132
O       4.30171801     0.79936102     5.73606099     1.21215655    -0.12816620    -1.19905497
O       4.50122000     0.83763901     1.10805202    -0.63891706     1.24613497    -1.06302762
O       1.55411902     5.59048200     5.72567398    -0.27583679    -1.06392005    -0.92181410
O       1.49957498     5.69934402     0.78463799    -0.13937698    -1.18155064    -0.09893814
O       1.47529802     0.80549699     5.74891100    -0.90078915     0.57290576    -1.42635317
O       1.42117700     0.80106900     0.97405900     0.82421345     1.15828086     1.47983111
O       4.39459698     8.52557700     8.21458599     0.21404365     0.18847864     1.20571053
O       4.31997801     8.23766002     3.73065400     0.38735329     1.49612626     1.41625516
O       4.37825900     3.86092400     8.16217802     0.66886194    -0.95484893     1.27254433
O       4.49324699     3.78064998     3.78124498     0.10422999    -0.20697697    -0.66603141
O       1.53567899     8.27139602     8.65154400    -0.27524055     0.13466441    -1.55628084
O       1.41138500     8.31485698     3.91064602     0.05327096     0.41976771    -1.33005658
O       1.59309298     3.85206398     8.26035998    -0.62287543    -0.66753216     0.03984106
O       1.49290798     3.96995901     3.71211099    -0.44795293    -2.37407835     0.49440352
O       3.02631902     6.09651298     7.85975301     0.09132819     1.25352561    -0.83964958
O       2.93866002     5.85121297     3.08083502     0.33336165     1.16301426     0.31752416
O       2.86960498     1.44664000     7.92722798     0.42258487     0.38951250     0.35735288
O       3.08034601     1.65658102     3.16456600    -0.33036297    -0.55513377     0.51434604
O       5.91105101     6.00363200     7.87181899    -0.39992779     0.67860539    -0.61497622
O       0.10256201     6.06543398     3.28448402    -0.51621060     0.15253975    -0.30903643
O       0.09695300     1.47950598     7.96105500    -0.84353144     0.31337003    -0.30617376
O       2.82035901     7.97526002     6.17960201     0.42453583    -0.64472338    -0.34603873
O       3.12020698     7.74623999     1.37362301    -1.26317471     1.15151526     0.19065071
O       3.01280299     3.05429398     5.97609198    -0.16554774     1.12369231    -0.63384787
O       5.92992999     7.91506701     6.19646298     0.70475789    -0.30345508     0.13698586
O       5.85735402     7.88075902     1.37227599     0.76117203    -0.52700718     0.80313965
O       5.81880499     3.14542402     5.98611200     0.85695903     0.10553560     0.15780023
O       0.21267702     3.19744802     1.47602601    -1.09302495     0.06216981    -0.27617592
