# total energy = -4986.25186122 eV

CRYSTAL
PRIMVEC
        3.74115083     0.00000000     0.00000000
        0.00000000     3.15636596     0.00000000
        0.00000000    -0.00007130     4.95504831
PRIMCOORD
6 1
Ti      1.87057531     1.57814728     2.47752431     0.00000000     0.00000000     0.00000000
Ti      0.00000000     0.00000000     0.00000000     0.00000000     0.00000000     0.00000000
O       1.87057531     0.61511533     0.96566598     0.00000000    -1.40380768    -0.49647943
O       1.87057531     2.54117928     3.98938258     0.00000000     1.40380768     0.49647943
O       0.00000000     0.96300354     3.44319124     0.00000000     1.40278155    -0.49688464
O       0.00000000     2.19329102     1.51185738     0.00000000    -1.40278155     0.49688464
