# total energy = -4987.60628043 eV

CRYSTAL
PRIMVEC
        2.88151673     0.00000000     0.00000000
        0.00000000     4.08491408     0.00000000
        0.00000000    -0.00005588     4.31068596
PRIMCOORD
6 1
Ti      1.44075837     2.04242895     2.15534298     0.00000000     0.00000000     0.00000000
Ti      0.00000000     0.00000000     0.00000000     0.00000000     0.00000000     0.00000000
O       1.44075837     0.79607864     0.84008919     0.00000000     0.48812103     0.35377056
O       1.44075837     3.28877922     3.47059672     0.00000000    -0.48812103    -0.35377056
O       0.00000000     1.24632768     2.99543305    -0.00000000    -0.48807167     0.35366308
O       0.00000000     2.83853023     1.31525286    -0.00000000     0.48807167    -0.35366308
