# total energy = -19959.45097977 eV

CRYSTAL
PRIMVEC
        7.60600008     0.00000000     0.00000000
        0.00000000     7.60600008     0.00000000
       -1.89786986    -1.89786986     4.85670466
PRIMCOORD
24 1
Ti      3.91172501     6.68960902     1.21280298    -1.05514462    -0.32432524    -0.32759337
Ti      3.76116001     2.90615002     1.17461501    -0.70526389     0.39702244     0.11964530
Ti      0.04762701     6.32260401     1.36219300     1.12536327     0.64264336     0.23104944
Ti     -0.07387801     2.84495400     1.09377699     2.44766875    -1.29329674    -1.03253022
Ti      5.76744924     2.94406620     3.48909183    -0.80673919    -1.60537478     0.98652571
Ti      5.60509724    -1.07666176     3.74895480    -0.28274381     0.82323797    -0.06271514
Ti      1.82727725     3.01736222     3.52993580     0.99312007    -0.34550394     0.82177835
Ti      1.82782124    -0.82374477     3.69350681     0.32081749     0.13662076    -0.45671268
O       3.50968498     4.76733599     0.75972898     1.37124182     0.59746238    -0.41446584
O       3.94809298     0.98256499     0.84670699    -0.71124942     0.62645286     0.17819114
O       0.41742099     4.60631598     0.92773001    -0.97131531     1.56200129    -1.15132988
O      -0.09752599     0.95147101     0.66757102     0.37362437    -0.53293486     1.87507718
O       5.49916722     4.57176123     4.32978880     0.12979499     0.32378300    -1.86625161
O       5.79514024     0.92899823     4.02510182    -0.31006976     1.05883158    -0.92231392
O       2.11027923     4.90563022     4.12420280    -0.85078092    -2.87961475     0.37641581
O       1.95838520     1.08225024     3.93265582    -0.76675955    -0.38153360     0.63245022
O       3.80365723     2.82536825     3.11605780     0.97621481     0.50830960    -0.07845081
O       3.62121924    -1.02352776     3.43488080     3.94509136     0.61495745    -1.69537937
O      -0.03370579     3.18636720     3.10578483     0.48505216    -0.49515583     0.82408078
O      -0.04030076    -1.21572075     3.40997084    -0.31252850     0.21746527    -0.78707256
O       5.77789801     6.52833998     1.62342299    -1.74516134    -0.33137727     0.96279622
O       5.82264698     2.95045199     1.49136199    -3.32404681     0.39493625     0.91125175
O       1.92858098     6.57407799     1.63555803    -0.60771260     1.30014590     0.65147844
O       1.90763297     2.85762700     1.60298002     0.28152639    -1.01475257     0.22407507
