# total energy = -19072.83577069 eV

CRYSTAL
PRIMVEC
        5.93400000     0.00000000     0.00000000
        0.00000000     9.29699974     0.00000000
        0.00000000     0.00000000     4.64899994
PRIMCOORD
22 1
Ti      4.50676901     6.85327799     2.46995402    -3.07302400     1.05622500    -1.52567904
Ti      4.41180201     2.36715198     2.17232399     0.51636538    -0.33506757     0.09654573
Ti      1.39536997     7.27030501     2.57710898     3.64408731     0.73998408    -0.15935652
Ti      1.59543099     2.26311700     2.11139601    -0.50305915     1.24405135     0.68639687
Ti      2.98355399     4.60240700     4.45864198    -0.44519002     0.34574820     0.04969276
Ti      3.00847300     0.21349302     0.11416798     1.36266615    -0.08152123     0.43294848
Ti      5.76752100     4.58913597     4.40748398     1.19000906    -1.24514099     0.79032372
Ti      0.05303197     9.16853101     0.16212499    -2.44794720     0.23197735     1.74303864
O       4.43171903     5.52605398     0.78449400     0.26233078    -0.09939940     1.31499146
O       4.41915699     0.69078698     1.32787701     1.18332444    -0.31773396    -1.18401967
O       1.46540399     0.57686300     1.41432801    -0.59872376     0.78814934    -1.35662612
O       4.56623001     8.33098900     3.99256398    -0.92716457     0.62790836    -0.92109625
O       4.36124002     3.96453198     3.41159800     0.31152140    -1.33178745    -0.75947150
O       1.48106801     8.63952098     3.85942399     0.68275516    -0.57096740    -0.74164012
O       1.56513702     4.01371398     3.44262499    -1.32796371    -0.92901191     0.22936923
O       2.90521099     6.17834098     3.32694197    -0.33291196    -0.65401484     0.61466846
O       2.98147099     1.51434500     3.21610802    -0.21897837    -0.42502228     2.04137054
O       0.04252802     6.18593499     3.35434600     0.65615837    -1.34485483     1.03609505
O       2.93824102     7.90874202     1.71846100     0.38047507    -0.43801767    -1.38787223
O       3.01619502     2.79266801     0.99915200    -0.57051926     2.02965041    -0.65734339
O       0.05093299     7.68712502     1.41279298    -0.52311376    -0.03202567    -0.25132414
O       5.85975098     2.97853802     1.13710100     0.77890236     0.74087162    -0.09101194
