# total energy = -19946.45151924 eV

CRYSTAL
PRIMVEC
        6.48780571     0.00000000     0.00000000
        0.00002741     5.10368625     0.00000000
        0.00000000     0.00000000    10.32958613
PRIMCOORD
24 1
Ti      2.35153379     3.02443978     3.83220278     0.34608373    -0.12573753     0.20748964
Ti      4.13629939     2.07924664     6.49738341    -0.34608373     0.12573753    -0.20748964
Ti      5.59532459     2.07924841     1.33254904     0.34603616     0.12586609    -0.20849135
Ti      0.89250858     3.02443824     8.99703726    -0.34603616    -0.12586609     0.20849135
Ti      2.35152020     0.47259678     1.33259046     0.34551011    -0.13395118    -0.20904028
Ti      4.13631298     4.63108982     8.99699585    -0.34551011     0.13395118     0.20904028
Ti      0.89249500     0.47259483     6.49734199    -0.34581916    -0.13387251    -0.20813576
Ti      5.59533818     4.63109177     3.83224420     0.34581916     0.13387251     0.20813576
O       2.05344116     1.79709472     5.27110874     0.89931077     0.73101941    -0.42114814
O       4.43439208     3.30659170     5.05847745    -0.89931077    -0.73101941     0.42114814
O       1.19051899     1.79711531     0.10634890    -0.89923955     0.73112251    -0.42177806
O       5.29731430     3.30657117    10.22323700     0.89923955    -0.73112251     0.42177806
O       4.43437849     0.75474852     0.10631539    -0.89929123    -0.73115105    -0.42107975
O       2.05345475     4.34893790    10.22327052     0.89929123     0.73115105     0.42107975
O       5.29730071     0.75472799     5.27114225     0.89849882    -0.73058309    -0.42138545
O       1.19053247     4.34895849     5.05844394    -0.89849882     0.73058309     0.42138545
O       0.23573367     3.10435128     2.79027892    -0.90607020     0.12370070     0.26564931
O       6.25209956     1.99933514     7.53930727     0.90607020    -0.12370070    -0.26564931
O       3.47964352     1.99928754     2.37454703    -0.90616148    -0.12328727    -0.26614836
O       3.00818971     3.10439894     7.95503899     0.90616148     0.12328727     0.26614836
O       0.23572008     0.55250816     2.37451403    -0.90650215     0.12376910    -0.26622240
O       6.25211315     4.55117832     7.95507198     0.90650215    -0.12376910     0.26622240
O       3.00817613     0.55255576     7.53934021     0.90681145     0.12344822    -0.26598715
O       3.47965711     4.55113066     2.79024592    -0.90681145    -0.12344822     0.26598715
