# total energy = -19960.68084820 eV

CRYSTAL
PRIMVEC
        5.93400000     0.00000000     0.00000000
        0.00000000     9.29699974     0.00000000
        0.00000000     0.00000000     4.64899994
PRIMCOORD
24 1
Ti      4.48932299     7.06548701     2.23574499    -0.23443353    -0.59176198     0.74153677
Ti      4.42178600     2.25315598     2.31915301     0.89949152     0.68190078     0.30942544
Ti      1.52969199     6.91304200     2.33349800     0.08894863     0.13281193     0.98217617
Ti      1.46954300     2.22218599     2.26450699    -0.76988473     1.30438822     0.87905304
Ti      2.97287599     4.60195498     0.07342800     0.52099877     0.69727572    -0.11413980
Ti      2.93271302     0.06491301     0.06963200     0.29217924    -1.72578602    -1.12772483
Ti      0.00218402     4.61184699     4.57751302    -0.53077642     0.84391376    -0.20584080
Ti      5.91853501     0.02059600     0.02196001    -0.41918279    -1.67012316    -1.23404204
O       4.44478499     5.51889702     0.97883800     0.36827004    -0.27985517    -0.47031048
O       4.41827200     0.85654000     1.00513398    -0.27743910    -0.22362769    -0.74487483
O       1.50292700     5.60097701     0.93794800    -0.32427459    -0.90759178    -0.27757923
O       1.46185501     0.95998902     0.91637698     0.67018066    -0.68889469    -0.52814001
O       4.49780998     8.39633398     3.72693298    -0.56211278     1.52723584     0.99916911
O       4.42245699     3.82754000     3.69796598     0.48731010    -0.32913244     0.22661017
O       1.44760400     8.48138599     3.68080598     0.51551126     0.35826099     1.20627849
O       1.54168399     3.80977901     3.68688300    -0.69578757     0.12054622     0.35387109
O       3.05668602     6.22236102     3.20607900    -1.24273855    -1.00042844     0.83302591
O       2.93882100     1.46047698     3.18205801    -0.01702534    -1.01618211     1.46252887
O       5.83205401     6.21324001     3.37115198     1.26873704    -1.19858935    -0.43905151
O       0.01662098     1.39818901     3.26328798    -0.02366290     0.56788208     0.16200244
O       2.93778899     7.89331100     1.41051000    -0.22623865     0.93434515    -0.86695960
O       3.03651902     3.19710299     1.43293801    -0.85443678     0.50011112    -0.79419992
O       0.02185899     7.93862000     1.46876099     0.50314065     0.30665816    -0.85590590
O       5.87921899     3.01570802     1.35415601     0.56322581     1.65664337    -0.49690804
