# total energy = -4983.53382888 eV

CRYSTAL
PRIMVEC
        2.67763063     0.00000000     0.00000000
        0.62579718     4.14851095     0.00000000
       -0.00000393    -0.00005446     4.20736189
PRIMCOORD
6 1
Ti      1.65171170     2.07422817     2.10368090     0.00000000     0.00000000     0.00000000
Ti      0.00000000     0.00000000     0.00000000     0.00000000     0.00000000     0.00000000
O       1.46077308     0.80847302     0.81995283    -3.77410702     2.21891967     2.39590342
O       1.84265031     3.33998331     3.38740892     3.77410702    -2.21891967    -2.39590342
O       0.19093691     1.26573308     2.92363463     3.77327295    -2.21755776     2.39444946
O       0.43485596     2.88272334     1.28372712    -3.77327295     2.21755776    -2.39444946
