# total energy = -19515.14565830 eV

CRYSTAL
PRIMVEC
        5.17600016     0.00000000     0.00000000
        0.00000000     5.50899976     0.00000000
        0.00000000     0.00000000     9.26300011
PRIMCOORD
23 1
Ti      1.94656200     3.21553900     3.35480199    -2.26488073     0.13931193     4.80976575
Ti      3.35265501     2.30116998     5.98728799    -1.18182189     1.69258278    -3.44695073
Ti      4.17829800     2.20315899     1.51510802     3.52241135     0.35217416    -1.53932106
Ti      0.82855499     3.37731399     7.76829398    -1.78642602     1.77051706     2.64793051
Ti      2.11332301     0.23375400     1.43519501    -1.98671040    -0.97314388    -0.49714972
Ti      3.18987702     5.25081302     7.90797201     1.96559213    -2.19491482     4.02957167
Ti      0.68374998     0.61036600     5.95582301     0.76268358    -1.30900618    -4.62134213
Ti      4.49275502     4.84961400     3.31892700     2.34571959     0.04580499     2.36209161
O       1.79259598     1.99266303     4.87834902    -0.56847909    -0.60358417     0.12273423
O       3.62845997     3.44619403     4.56102200     0.52669556     0.91822715    -0.35800542
O       4.84895502     3.04538999     9.18670402     0.08768828    -0.07732596    -0.25993580
O       3.14186900     1.14932102     0.25312501     0.25922232    -0.92165264    -2.11012160
O       1.77955700     4.58318098     9.06260798     0.52912706     0.94463805     0.76953249
O       4.44293298     0.52181798     4.78390998    -1.93759563     1.83709708    -0.52686500
O       0.98389302     4.65257602     4.32237598     1.64836339    -0.07261158    -0.23430960
O       0.24421001     3.19820701     2.56237298    -0.14036866     0.08857788    -0.54852089
O       5.13645802     2.09568198     6.65314802    -0.81841869     0.62627083     1.28655453
O       2.75139298     1.78162502     2.54850700    -0.65811524    -2.66124445    -0.24858309
O       2.54439101     3.68646500     7.07934299     1.13380935    -2.17144706    -1.22626137
O       0.28561300     0.62719601     1.83575202    -0.78821130    -0.03159990     0.28923147
O       5.01323402     4.84949298     7.02988698    -0.50838827    -0.75256886     1.70952584
O       2.49930299     0.66759102     6.68999500    -0.83230034     1.66423713    -0.81174308
O       3.01580401     4.18016102     2.18830398     0.69040368     1.68966072    -1.59782885
