# total energy = -4970.80878317 eV

CRYSTAL
PRIMVEC
        5.19129709     0.00000000     0.00000000
       -0.00000735     2.79531416     0.00000000
       -2.59567737    -1.39771998     5.60038028
PRIMCOORD
6 1
Ti     -0.00022220     2.09658194     1.40009485    -0.01084620    -0.01527364    20.74249300
Ti      2.59583418    -0.69898759     4.20028499     0.01084620     0.01527364   -20.74249300
O       0.00005511     0.69881759     0.91225612     0.00936242     0.01190884   -13.87051509
O       2.59555676     0.69877664     4.68812383    -0.00936242    -0.01190884    13.87051509
O      -0.00002120    -0.69883654     3.71244626    -0.00195764     0.00019952    -2.01857924
O       2.59563296     2.09643078     1.88793369     0.00195764    -0.00019952     2.01857924
