# total energy = -19073.86395983 eV

CRYSTAL
PRIMVEC
        5.17600016     0.00000000     0.00000000
        0.00000000     5.50899976     0.00000000
        0.00000000     0.00000000     9.26300011
PRIMCOORD
22 1
Ti      1.81353198     3.43153597     3.32261399    -0.53843780    -0.76520558    -1.65788444
Ti      3.70748598     2.28072400     5.90043403    -1.06925175    -0.62993079    -1.28100275
Ti      4.15382397     2.25252398     1.19101299     1.05449644    -0.54887365     1.13262484
Ti      0.82356803     3.17108800     8.07328799     0.15823732     0.18415867     0.06989187
Ti      1.64282098     0.47132997     1.26005401     0.27134507     0.55719889    -0.10749632
Ti      3.28637398     5.04236698     8.11144500     0.14774156     0.15042965     0.64858338
Ti      1.37460400     0.19343201     6.07340402    -1.00136149    -0.27012817    -1.55215704
Ti      4.28118498     4.96415500     3.48262502     0.43133511     0.50326663    -0.00433462
O       3.36242299     3.51188000     4.37952400     0.52505160    -0.90768794     2.43704418
O       1.03529899     1.95880399     0.30083002    -1.32363885     0.53910474    -1.26001765
O       4.24868201     3.53437797     8.75549499    -0.12387914    -0.66365725     0.76671405
O       3.41310701     0.86335200     0.14924201     0.67671795     0.06894930     0.23945207
O       1.65462698     4.61147001     9.00631702    -0.43182182     0.82932069     1.73905651
O       3.48087699     0.81533699     4.72493302     0.85584214    -0.05745081     0.22501249
O       0.96876902     4.81339500     4.20582998    -0.96393264     1.73384643     2.89799892
O       5.14770299     3.31432099     2.57611402     0.20712069    -0.55830626    -0.99205101
O       0.26247599     2.19853700     6.45629800     0.49871141    -1.19314606    -0.37116073
O       2.61262698     1.84872798     2.38372602     0.11201118     0.14099061    -0.78449889
O       2.11270001     4.13590100     6.77823298     0.51083699    -1.23582022    -0.80197725
O       5.12499102     0.57776101     2.06381302     0.00354375     0.06892616     0.32606434
O       2.63120502     1.11629697     7.10882599     0.20030727     1.39615684    -0.64414848
O       2.76287602     4.59620901     2.27720698    -0.20097472     0.65785787    -1.02571293
