# total energy = -19519.10321423 eV

CRYSTAL
PRIMVEC
        7.60600008     0.00000000     0.00000000
        0.00000000     7.60600008     0.00000000
       -1.89786986    -1.89786986     4.85670466
PRIMCOORD
23 1
Ti      3.76605802     6.60412203     1.26296797     1.33229319     0.07075113    -0.19751068
Ti      3.72650101     2.77960998     1.15095898     0.52700024     0.00630100     1.04922157
Ti      0.05788702     6.71414401     1.20797598    -1.26674083    -0.22310447     0.32125637
Ti     -0.02823399     2.89238500     1.05608100    -0.44546359     0.37790165    -0.29054968
Ti      5.61752423     2.99624022     3.61728783     0.02829552    -1.81244302     0.05933491
Ti      5.73217323    -0.99737280     3.57659081    -0.12759670     1.64419717     0.01977385
Ti      2.03055021     2.82121320     3.71247983    -0.03887432    -0.03396069     0.28660715
Ti      1.91713922    -1.02116577     3.62745179     0.09211855    -0.09672931     0.64966967
O       3.77231702     4.69156199     0.91805998    -0.34195813     0.01192144    -0.79169824
O       3.82997702     0.93748602     0.93557501    -0.20238755    -0.14970074    -0.91749953
O      -0.08903598     4.81997600     0.73261500     0.75956149     0.22951424     0.82282634
O      -0.09385900     1.06485798     0.67960499     0.20745442    -1.69170629     0.99352194
O       5.77376725     4.78235621     4.07949780     0.45545155     0.38822515    -0.19569779
O       5.72890021     1.01247425     3.95679181     0.57727792     0.08290011     0.18354444
O       1.90090020     4.69171524     4.15039379    -0.36890665     0.32412675    -0.63807605
O       1.90240222     0.87979221     4.02135080    -0.43202802     0.36583906     0.80564210
O       3.82904922     2.82750020     3.43721780    -1.06530665     0.12334049    -1.29535079
O       3.80792224    -1.05712977     3.18507082    -0.46236268    -0.07674771     1.08457990
O       0.00789723    -1.04983379     3.19124283     0.81691228     0.21884390     0.19535815
O       5.70217200     6.66228199     1.69610098     0.51663895     0.11119177    -1.28328666
O       5.68814198     2.90102901     1.69352299     0.80274164     0.14102969    -0.53077539
O       1.93914902     6.73070398     1.67572798    -1.31879695    -0.11119151    -0.32573935
O       1.79719998     2.84104402     1.74486001    -0.04532291     0.09949993    -0.00515224
