# total energy = -19941.02286449 eV

CRYSTAL
PRIMVEC
        4.91825896     0.00000000     0.00000000
        0.00002448     4.73598948     0.00000000
        0.00000000     0.00000000     8.40444132
PRIMCOORD
24 1
Ti      1.78264685     2.80654294     3.11798786    -0.61045854     1.81836196    -2.73780756
Ti      3.13563659     1.92944645     5.28645375     0.61045854    -1.81836196     2.73780756
Ti      4.24169062     1.92944808     1.08419937    -0.60581538    -1.81777601     2.74059464
Ti      0.67659287     2.80654154     7.32024238     0.60581538     1.81777601    -2.74059464
Ti      1.78263466     0.43854829     1.08423309    -0.61049787     1.81902402     2.73884886
Ti      3.13564883     4.29744123     7.32020867     0.61049787    -1.81902402    -2.73884886
Ti      0.67658063     0.43854657     5.28642008     0.60564980     1.81893943     2.73923658
Ti      4.24170281     4.29744301     3.11802158    -0.60564980    -1.81893943    -2.73923658
O       1.55666865     1.66762235     4.28872219    -1.24613240    -2.44216247     1.06021638
O       3.36161484     3.06836703     4.11571943     1.24613240     2.44216247    -1.06021638
O       0.90250689     1.66764150     0.08652844     1.24636355    -2.44299474     1.06087972
O       4.01577664     3.06834793     8.31791298    -1.24636355     2.44299474    -1.06087972
O       3.36160260     0.70037225     0.08650119     1.24656255     2.44211465     1.05978958
O       1.55668089     4.03561713     8.31794023    -1.24656255    -2.44211465    -1.05978958
O       4.01576440     0.70035314     4.28874948    -1.24602647     2.44289498     1.06114918
O       0.90251899     4.03563629     4.11569218     1.24602647    -2.44289498    -1.06114918
O       0.17870669     2.88069728     2.27024933     0.83822776    -0.13214010     0.19563171
O       4.73957679     1.85529214     6.13419228    -0.83822776     0.13214010    -0.19563171
O       2.63784053     1.85524806     1.93199820     0.83810332     0.13165853    -0.19675708
O       2.28044291     2.88074136     6.47244332    -0.83810332    -0.13165853     0.19675708
O       0.17869446     0.51270250     1.93197133     0.83838100    -0.13204239    -0.19675966
O       4.73958898     4.22328693     6.47247014    -0.83838100     0.13204239     0.19675966
O       2.28043072     0.51274658     6.13421910    -0.83788632    -0.13161919    -0.19575538
O       2.63785277     4.22324280     2.27022251     0.83788632     0.13161919     0.19575538
