# total energy = -19896.97266151 eV

CRYSTAL
PRIMVEC
        8.51152486     0.00000000     0.00000000
        0.00002995     4.87783505     0.00000000
        0.00000000     0.00000000    12.87722571
PRIMCOORD
24 1
Ti      3.08503624     2.89060069     4.77735907     0.45258606    -0.55141364     2.58258307
Ti      5.42651877     1.98723476     8.09986717    -0.45258606     0.55141364    -2.58258307
Ti      7.34065280     1.98723649     1.66120264     0.45315324     0.55078707    -2.58437410
Ti      1.17090221     2.89059909    11.21602373    -0.45315324    -0.55078707     2.58437410
Ti      3.08502140     0.45168323     1.66125425     0.45333682    -0.54718006    -2.58309292
Ti      5.42653361     4.42615235    11.21597212    -0.45333682     0.54718006     2.58309292
Ti      1.17088737     0.45168130     8.09981556    -0.45159953    -0.54661956    -2.58464046
Ti      7.34066764     4.42615421     4.77741068     0.45159953     0.54661956     2.58464046
O       2.69396199     1.71756872     6.57114992     0.73688307     1.43649849    -2.23613604
O       5.81759302     3.16026666     6.30607632    -0.73688307    -1.43649849     2.23613604
O       1.56187144     1.71758837     0.13257824    -0.73528461     1.43653603    -2.23660167
O       6.94968364     3.16024707    12.74464760     0.73528461    -1.43653603     2.23660167
O       5.81757818     0.72134914     0.13253647    -0.73696997    -1.43674789    -2.23665978
O       2.69397683     4.15648631    12.74468937     0.73696997     1.43674789     2.23665978
O       6.94966880     0.72132948     6.57119169     0.73541728    -1.43635014    -2.23628568
O       1.56188608     4.15650597     6.30603448    -0.73541728     1.43635014     2.23628568
O       0.30926159     2.96697582     3.47846004    -2.31650542     0.74936603     0.15423719
O       8.20229342     1.91085963     9.39876620     2.31650542    -0.74936603    -0.15423719
O       4.56503452     1.91081402     2.96019398    -2.31835687    -0.74940023    -0.15425776
O       3.94652049     2.96702143     9.91703199     2.31835687     0.74940023     0.15425776
O       0.30924675     0.52805823     2.96015288    -2.31643728     0.74914698    -0.15428296
O       8.20230827     4.34977722     9.91707309     2.31643728    -0.74914698     0.15428296
O       3.94650565     0.52810384     9.39880724     2.31840880     0.74922180    -0.15425211
O       4.56504936     4.34973161     3.47841894    -2.31840880    -0.74922180     0.15425211
