# total energy = -19951.67936803 eV

CRYSTAL
PRIMVEC
        5.64861910     0.00000000     0.00000000
        0.59971553     5.98185152     0.00000000
        0.00000000     0.00000000    10.12247629
PRIMCOORD
24 1
Ti      2.40274367     3.54483971     3.75536660     0.14888467    -1.15198911     0.69775549
Ti      3.84559113     2.43701187     6.36711004    -0.14888467     1.15198911    -0.69775549
Ti      5.11589411     2.43701390     1.30583129    -0.19555458     0.06670987    -0.21540479
Ti      1.13244070     3.54483796     8.81664552     0.19555458    -0.06670987     0.21540479
Ti      2.10288602     0.55391400     1.30587189     0.14888467    -1.15198911    -0.69775549
Ti      4.14544879     5.42793781     8.81660492    -0.14888467     1.15198911     0.69775549
Ti      0.83258297     0.55391180     6.36706949     0.19555458    -0.06670987    -0.21540479
Ti      5.41575177     5.42793995     3.75540720    -0.19555458     0.06670987     0.21540479
O       1.99899371     2.10631163     5.16542230     1.20532564     1.28420069    -0.27036728
O       4.24934109     3.87554000     4.95705434    -1.20532564    -1.28420069     0.27036728
O       1.24769145     2.10633582     0.10421657    -0.78051188     0.50811985     0.38237589
O       5.00064341     3.87551587    10.01825983     0.78051188    -0.50811985    -0.38237589
O       3.94948344     0.88461406     0.10418375    -1.20532564    -1.28420069    -0.27036728
O       2.29885136     5.09723757    10.01829265     1.20532564     1.28420069     0.27036728
O       4.70078575     0.88458993     5.16545518     0.78051188    -0.50811985     0.38237589
O       1.54754899     5.09726171     4.95702152    -0.78051188     0.50811985    -0.38237589
O       0.57000835     3.63850133     2.73433345     0.25502936     0.31818493     0.56888944
O       5.67832639     2.34335031     7.38814319    -0.25502936    -0.31818493    -0.56888944
O       3.26447722     2.34329460     2.32693706     0.53720804     0.63647888     0.01336588
O       2.98385758     3.63855697     7.79553946    -0.53720804    -0.63647888    -0.01336588
O       0.27015070     0.64757538     2.32690470     0.25502936     0.31818493    -0.56888944
O       5.97818404     5.33427619     7.79557177    -0.25502936    -0.31818493     0.56888944
O       2.68399992     0.64763109     7.38817549    -0.53720804    -0.63647888     0.01336588
O       3.56433488     5.33422054     2.73430115     0.53720804     0.63647888    -0.01336588
