# total energy = -39032.14781778 eV

CRYSTAL
PRIMVEC
        5.93200024     0.00000000     0.00000000
        0.00000000     9.29399984     0.00000000
        0.00000000     0.00000000     9.29399984
PRIMCOORD
46 1
Ti      4.41671299     6.89996301     7.04774798     0.00797994    -0.31725085    -0.83739935
Ti      4.63357400     7.04951798     2.29932802    -3.08992901     0.10843117     1.10690660
Ti      4.39321000     2.45696902     6.92216602     0.44154394    -1.45620318     0.53252477
Ti      4.16206199     2.46046699     1.87927198     1.28878265    -0.71762961     1.14384360
Ti      1.47572199     7.05924198     6.87680802     1.06299909    -0.88934131     0.29996686
Ti      1.52462401     6.84196698     2.38404898     3.28995397     0.38886381    -0.61150138
Ti      1.48636502     2.36334597     6.98159098    -0.82946081    -0.43085046     2.27016538
Ti      1.19346901     1.95563999     2.56344901     0.97143975     0.98476064    -1.67714073
Ti      3.14128299     4.75242600     4.68852700     1.67360263     0.25777170    -1.32949737
Ti      3.04133501     4.78144603     9.16516000    -2.82808906    -0.11483631     0.01135708
Ti      2.85745301     0.02783700     4.65651802     0.87187143    -0.35903695     0.22834747
Ti      2.91757299     9.26837898     0.14492800     0.23075325     0.60692352     0.39748370
Ti      0.25628700     4.59355799     4.54234199    -1.86113537    -0.63313105     0.06121285
Ti      5.86239502     4.69467302     0.01351302     2.34721828    -0.68893352    -0.55105035
Ti      5.84554803     9.17865301     4.90605700    -1.15805075     0.24864839    -0.61973251
Ti      5.91957198     9.11399199     9.12036202     0.08291554     2.19789447     0.40609124
O       4.50681298     5.77683499     5.47244499    -0.07097070    -1.55823822    -0.35262924
O       4.43280199     5.72181300     0.81335300     0.44871269    -0.97790454    -0.22335824
O       4.42730902     0.89496102     5.79393499     0.08984878     0.09297010    -1.28744285
O       4.58424998     0.86577700     0.82523901    -1.43985687     0.37369430     0.68000793
O       1.63499699     5.73811102     5.34147500    -0.79829877    -0.03564707     1.10382899
O       1.58262400     5.60431898     1.01252801    -0.65087655    -0.91240463    -1.10134145
O       1.34978601     0.82873698     5.72844401     1.00906246     1.04642292    -0.68600914
O       1.40673702     0.84124498     0.88071001     0.60089069     0.23049151     1.43059884
O       4.49449897     8.27051902     8.36074400    -0.85754344     0.88935031     0.82044164
O       4.43387399     8.25089803     3.86716897     0.62955387     1.52516379     0.10514042
O       4.41697101     3.86465401     8.26363897     0.03059768    -0.03809271     1.11603351
O       4.59531999     3.79835201     3.69002202     0.07786332    -0.36573596     0.21742902
O       1.52972898     8.15773399     8.60964797     0.25111588     0.26622343    -1.54897864
O       1.44255899     8.27789803     4.12863900    -0.17421981    -0.22740285    -2.37177438
O       1.38683498     4.12487798     8.16717800     1.31752142    -1.69711229     1.82002033
O       1.67631600     3.72558601     3.78094102    -1.52104617    -1.04852145    -1.03370830
O       2.94838302     6.11327700     7.91810099    -0.30102513     0.73333520    -1.10430284
O       3.13289199     5.95970902     3.07196501    -1.19641316    -0.03476390     1.11048969
O       2.96086001     1.64711198     8.18097000     0.14369927    -0.27496853    -1.41282814
O       2.94821802     1.32174602     3.05305401    -0.44511212     0.56750258     0.42475643
O       5.85837301     5.88380098     7.75977598     0.60261384     1.98487232    -0.07054801
O       0.10365000     6.00229398     3.07383703    -0.79339851    -0.91956336     1.53265059
O       0.11822502     1.58330802     8.00916102    -0.90436093    -1.28723227    -0.11833661
O       3.11304102     7.97955202     6.00494801    -1.46379591    -0.94237651     1.76894174
O       3.06661899     7.90439202     1.53206498    -0.67077407     1.13045997    -0.55117685
O       2.85133000     3.11644902     5.93522600     1.96030491     1.02606260     0.08122375
O       5.91314597     7.95231098     6.25076402     0.23262296    -0.40591640     0.54169873
O       5.89954099     7.98737802     1.48835197     1.81265951     0.08466697    -0.37377735
O       0.03872498     3.25275598     6.15816001    -0.67720028     1.13760970    -1.90454692
O       5.86424502     3.07155802     1.38213800     0.25542994     0.45097398     0.55591873
