# total energy = -4982.71758400 eV

CRYSTAL
PRIMVEC
        3.36578617     0.00000000     0.00000000
       -0.00000749     3.36578617     0.00000000
       -1.68291948    -1.68292323     4.29549171
PRIMCOORD
6 1
Ti     -0.00014822     2.52446711     1.07387281     0.00321259    -0.00288632     0.00123490
Ti      1.68300732    -0.84160426     3.22161862    -0.00321259     0.00288632    -0.00123490
O       0.00003362     0.84144082     0.69970045     0.00105981     0.00548571     3.15292724
O       1.68282539     0.84142193     3.59579102    -0.00105981    -0.00548571    -3.15292724
O      -0.00001901    -0.84142621     2.84744626     0.00547465     0.00103384     3.15470798
O       1.68287797     2.52428892     1.44804522    -0.00547465    -0.00103384    -3.15470798
