# total energy = -4986.22867031 eV

CRYSTAL
PRIMVEC
        3.05582286     0.00000000     0.00000000
        1.84154479     4.41970720     0.00000000
       -0.00001174    -0.00006361     4.89066253
PRIMCOORD
6 1
Ti      2.44867787     2.20982164     2.44533121     0.00000000     0.00000000     0.00000000
Ti      0.00000000     0.00000000     0.00000000     0.00000000     0.00000000     0.00000000
O       1.88679902     0.86132333     0.95311807    -2.43682846     1.33262872     1.30666005
O       3.01055672     3.55831996     3.93754430     2.43682846    -1.33262872    -1.30666005
O       0.56187382     1.34847264     3.39845036     2.43644048    -1.33243280     1.30636129
O       1.27965921     3.07117084     1.49221207    -2.43644048     1.33243280    -1.30636129
