# total energy = -19961.02619034 eV

CRYSTAL
PRIMVEC
        7.60600008     0.00000000     0.00000000
        0.00000000     7.60600008     0.00000000
       -1.89786986    -1.89786986     4.85670466
PRIMCOORD
24 1
Ti      3.83267900     6.64275699     1.17681300    -0.46097506    -0.96473431     0.53095820
Ti      3.81425601     2.73545500     1.19909099    -0.83637143     0.80676439    -0.15945988
Ti     -0.06548299     6.71650599     1.15625801     0.35113723    -0.41824228     0.39954727
Ti     -0.00194399     2.86250898     1.19420298     0.50410636     0.38038303     1.91132178
Ti      5.66204422     2.85112722     3.62372479    -0.30452851     1.47333959     0.07208990
Ti      5.71545821    -0.81335480     3.64222382    -0.44082146    -1.21162767    -0.16273958
Ti      1.92446721     2.74236421     3.67039981    -0.06127995     0.14153697     0.00421687
Ti      1.93551421    -1.00330176     3.63229979     0.32775998    -0.08747976    -0.96181920
O       3.90836500     4.61968501     0.80500798    -0.73324290     0.63694451    -0.23199767
O       3.92627199     0.84392600     0.74509601    -0.44473931     0.80761028     0.28880287
O      -0.05234002     4.80700502     0.91763801     0.44232710     0.33092707    -0.70535259
O      -0.07029300     0.97744298     0.79547099     0.30188259     0.54043734    -0.39973521
O       5.43494220     4.87250420     4.00249881     1.30743910    -1.06117412     0.62902165
O       5.52704222     1.07739525     4.20308281     0.33058511    -0.94649722    -1.70590161
O       2.08568022     4.66145625     4.06616582    -0.97605231     0.34824654    -0.17289852
O       2.05411125     0.84624121     4.02779380    -0.68337890     0.75130902     0.89540835
O       3.76013425     2.81046424     3.29281480     0.71575913    -0.17544237    -0.71336672
O       3.78963424    -0.84575177     3.17545684     0.80399788    -0.18189585     0.29203938
O       0.01549320     2.76964821     3.13220083    -1.11785745     0.28803591     1.44882900
O      -0.01984277    -0.68029678     3.18371084    -0.14488120    -0.72273222     0.64002083
O       5.70439698     6.66541901     1.69356199     0.07243083     0.02865778    -0.38725764
O       5.58977401     2.76536902     1.67747701     1.70520227     0.02274990     0.48251808
O       1.95696600     6.79251003     1.71408602    -0.88829745    -0.78304210    -1.51272916
O       1.89095997     2.76639499     1.63095302     0.22979809    -0.00407417    -0.48151612
