# total energy = -39023.64826229 eV

CRYSTAL
PRIMVEC
        5.93200024     0.00000000     0.00000000
        0.00000000     9.29399984     0.00000000
        0.00000000     0.00000000     9.29399984
PRIMCOORD
46 1
Ti      4.44055200     7.11856000     7.16109098     1.54151601     1.87273002    -0.29604618
Ti      4.60583501     6.80713802     1.90021798    -0.77949166     1.42262019     0.45388704
Ti      4.25871198     2.01835702     6.99993999     1.66309093    -1.30605867    -2.08100513
Ti      4.29570301     2.66578199     2.34258900     0.32894680    -1.72831521     1.00094137
Ti      1.56872802     6.92069099     7.08998702    -0.95682714     1.82792853     1.61575716
Ti      1.55148102     7.16192999     1.78603799     0.40986279    -1.14393590    -0.23024777
Ti      1.49626302     2.34824701     6.80105502    -2.30812824     0.95285761     0.16561973
Ti      1.16771401     2.22586398     4.04806398     0.02788182    -0.34995118    -0.29603179
Ti      3.19732101     4.82072997     4.39768600    -1.35248792     2.26857695     0.75744727
Ti      2.83290601     4.61506502     9.10430398    -1.64796307     0.20495351     0.66978188
Ti      2.99300499     9.26063199     4.63717299     2.61038287    -0.33384399    -0.53352339
Ti      3.15722599     0.06790201     0.06415999    -2.29148934    -0.28160044     1.07612689
Ti      0.05319999     5.45585401     4.70223100     3.75954351    -2.10027350     0.13936824
Ti      5.66718100     4.28238298     9.06381599     1.64142809     1.79854029    -1.53972935
Ti      0.02288501     8.49089700     4.24490601    -1.95818118     1.32919732     1.33609302
Ti      0.07421298     0.58197998     0.04169398     0.51652299    -3.26599128     2.89871420
O       4.58155900     6.10954699     5.38698302    -3.86273041    -1.21154745     1.51095253
O       4.52931402     4.68334900     1.18680699    -1.73535875    -0.39811799     0.41116660
O       4.32401198     0.69463902     5.67706799     0.51219659     0.09004547    -1.21746459
O       4.51148398     0.92439000     1.26813502    -1.37058181     1.38523454    -2.39101910
O       1.89546899     5.80205500     5.57887698    -1.04565545    -1.01556993    -0.66042332
O       1.29369100     5.19344401     1.18216801     1.21412679     0.67193338    -1.53318898
O       1.39163599     0.75143699     5.11754301    -0.69132027    -0.27681921     2.32312755
O       1.58499302     0.81216902     0.98657298     0.31779490     0.50686567    -0.48227974
O       4.35480697     8.96204600     8.15553801     1.54412003    -2.25120348    -0.65551482
O       4.18554900     8.37435402     3.13075501     1.98619721     1.12005060     3.08537842
O       4.43517402     3.80953702     7.76113400     0.32288594    -0.08661767     2.61804039
O       4.82873500     4.11783902     3.93949502    -0.47513104    -0.45595138    -1.44873258
O       1.51060700     8.15496502     8.50173598     0.80573055     0.95316615    -0.14084431
O       1.69490298     8.29510502     3.69437101    -0.73554712    -1.53375154    -3.26907429
O       1.32102999     3.88444598     8.04282098     1.22845555    -0.72831306     0.84898783
O       1.59292798     3.94820998     4.10590502     0.00664168     2.16802364    -1.66230648
O       3.22786502     6.01792900     8.01636900    -1.00877116     0.09979741    -0.15806685
O       3.07589298     6.22476502     2.90164698    -0.79884770    -2.19990970     1.15609671
O       2.67502201     1.32104502     7.75385602     0.75571281    -0.10780794     1.71754434
O       2.81480402     1.60807901     3.26870999     1.14115345     1.49174329    -0.39080937
O       5.85510100     6.17655199     8.16168499    -0.67545656    -0.72272143    -0.69861912
O       0.03270702     6.70845302     3.37983599     0.74288171    -0.95721512    -1.96485962
O       0.07319998     1.25294499     7.72626800     0.20176842     2.21447963    -0.69296012
O       2.95800198     8.05723000     6.16441500    -0.26019805    -1.21124072     0.35480208
O       3.20891502     7.56420699     0.88883701    -1.05059685     0.27792684     0.15990211
O       2.99025099     3.06922202     6.03304002    -0.10748038     0.21297124    -1.61958990
O       0.11084401     7.67493500     6.05515302     0.60947432     1.47771407    -1.11571649
O       5.69232502     8.08356900     0.98503398     1.50466206    -2.34073421     1.80584043
O       5.92762400     2.60548500     5.74187299     0.81846394     1.70825649     0.15541964
O       5.68197299     1.72737901     3.18416598    -1.09919817    -0.04812258    -1.18294109
