# total energy = -4987.60254757 eV

CRYSTAL
PRIMVEC
        3.66698068     0.00000000     0.00000000
        0.00000000     3.83040597     0.00000000
        0.00000000    -0.00006694     4.98750733
PRIMCOORD
6 1
Ti      1.83349018     1.91516946     2.49375361     0.00000000     0.00000000     0.00000000
Ti      0.00000000     0.00000000     0.00000000     0.00000000     0.00000000     0.00000000
O       1.83349018     0.74647665     0.97199170    -0.00000000     0.04436620     0.39516096
O       1.83349018     3.08386227     4.01551547    -0.00000000    -0.04436620    -0.39516096
O       0.00000000     1.16866602     3.46574640     0.00000000    -0.04441968     0.39494627
O       0.00000000     2.66167290     1.52176082     0.00000000     0.04441968    -0.39494627
