# total energy = -4986.04359961 eV

CRYSTAL
PRIMVEC
        2.71802477     0.00000000     0.00000000
        0.42481142     4.23749676     0.00000000
       -0.00000283    -0.00005526     4.26408395
PRIMCOORD
6 1
Ti      1.57141673     2.11872075     2.13204198     0.00000000     0.00000000     0.00000000
Ti      0.00000000     0.00000000     0.00000000     0.00000000     0.00000000     0.00000000
O       1.44180132     0.82581497     0.83100715    -2.08360709     1.57078649     1.62688773
O       1.70103218     3.41162652     3.43307675     2.08360709    -1.57078649    -1.62688773
O       0.12961425     1.29288337     2.96304999     2.08338418    -1.57127989     1.62739449
O       0.29519453     2.94455802     1.30103391    -2.08338418     1.57127989    -1.62739449
