# total energy = -19517.14847787 eV

CRYSTAL
PRIMVEC
        5.17600016     0.00000000     0.00000000
        0.00000000     5.50899976     0.00000000
        0.00000000     0.00000000     9.26300011
PRIMCOORD
23 1
Ti      1.83429499     3.19294001     3.40387599    -0.38297984     0.57441937     1.80972511
Ti      3.29975200     2.26089303     5.87516899     0.81159035     0.86585762    -2.36691911
Ti      4.30706598     2.03167498     1.46099801     2.17068653     0.43260344    -1.29684435
Ti      0.95677999     3.27273200     7.71436902    -2.24979478     0.51112676     2.68957982
Ti      2.05385301     0.20811700     1.34957699    -0.37745917     0.31734110    -1.59880176
Ti      3.27933899     5.25022499     7.89055499     0.56091747     0.16857496     1.25697783
Ti      0.68556199     0.61728902     5.93383299    -0.69820415    -0.61224597    -2.07773366
Ti      4.47898799     4.94631998     3.32535201     0.76616100    -0.33016602     2.26468790
O       1.69874301     1.88658199     4.83599600    -0.72254042     0.51848269    -0.29382706
O       3.60178902     3.56292799     4.49926998    -1.14102284    -0.12772988    -0.09677636
O       0.10001699     2.91207902     0.15574898    -0.01135065    -0.69276215    -1.62787657
O       3.53018800     0.84829198     0.14041300    -0.43554529     0.07211433     0.29809715
O       1.82258599     4.66088802     9.04379198     0.72369845     0.01631803    -0.33168092
O       4.19563803     0.80310898     5.02523301    -0.19229750    -0.53980845    -1.62033527
O       0.83514600     4.75796601     4.44194702     1.20712130    -0.05449918     0.10524609
O       0.06954500     3.37578699     2.52303902     1.41939860    -0.57068664     0.92073295
O       4.85811301     2.01695501     6.93970401     1.31088720     0.55181551     0.59498897
O       2.63047100     1.84015499     2.34016499    -0.32659141    -0.14434230    -0.41867037
O       2.58374401     3.75163302     6.92967600     0.28867663    -0.40526437    -0.24318325
O       0.25053701     0.54138002     1.88829599    -0.16160341     0.24716384     0.73520748
O       0.00204098     4.81198299     7.16845702    -0.92546044    -0.49149612     0.56999244
O       2.31338497     1.05852098     7.09028701    -1.12182209     0.16420408     0.00343011
O       2.93603900     4.43179999     2.21706302    -0.51246502    -0.47102010     0.72398281
