# total energy = -19073.27233754 eV

CRYSTAL
PRIMVEC
        5.17600016     0.00000000     0.00000000
        0.00000000     5.50899976     0.00000000
        0.00000000     0.00000000     9.26300011
PRIMCOORD
22 1
Ti      1.64895103     3.46422399     3.47557098     1.56835217     0.49198926     0.36949774
Ti      3.83884799     2.30740802     6.15591397    -0.43368099    -0.20996536    -1.62601972
Ti      4.24553198     2.40650699     1.26960798     1.23761588    -0.92291376    -0.80910178
Ti      1.30654699     2.68874400     7.77039302     0.05573717     0.96670712    -0.29210520
Ti      1.68796499     0.81127000     1.50020300     0.48072834     0.41687754     0.34094795
Ti      3.13018800     5.33867898     8.02854298     0.79695743     1.06719281    -0.61070305
Ti      0.65606099     5.34082702     6.27644902    -1.15580232     0.15636735    -0.70316792
Ti      4.35905002     5.22488799     3.39790602     0.04908135    -1.09615322     0.05011159
O       3.22419300     3.31351802     4.73545999    -0.86647160    -0.46390792    -0.69422639
O       0.85102598     2.09136998     0.15967601    -0.26846106    -0.11657617    -0.12553904
O       0.30278400     3.40745201     6.31455401    -0.75539476    -1.72054251     0.10644705
O       3.28771602     0.63897603     0.39972398     0.14357097    -0.15980492    -0.78552399
O       1.36879999     4.80201102     7.94389701    -1.43755085    -1.29465068     1.98718143
O       4.15906600     0.61995798     4.88390601    -0.57362438     1.46364987     1.52300843
O       0.86212901     4.83059299     4.42614203     0.24914539     0.16807333    -0.16251486
O       0.03298002     3.55351302     2.30931602    -0.15348309     1.31626467     0.72395144
O       4.70642901     0.88899402     7.35526601    -1.05003763     0.92245996    -0.22829605
O       2.60647599     2.39590101     2.10577001    -0.63461972    -0.61763526     0.36987158
O       3.12695901     3.46350098     7.48552902     1.19181166    -1.35479266     1.06596485
O       5.11113800     1.07041101     2.29702398    -0.26310314    -1.14945863     0.74586830
O       2.05717100     1.15350300     6.76998798     1.58894491     0.98319998    -0.55697906
O       2.57454300     4.86965601     2.60474103     0.23028428     1.15361971    -0.68867255
