# total energy = -19960.43023124 eV

CRYSTAL
PRIMVEC
        7.60600008     0.00000000     0.00000000
        0.00000000     7.60600008     0.00000000
       -1.89786986    -1.89786986     4.85670466
PRIMCOORD
24 1
Ti      3.79244401     6.88454300     1.23532799     1.47325191    -1.93798875     0.57740596
Ti      3.79374299     2.92519198     1.24639398     0.51264268     1.55175286    -1.95881418
Ti      0.06083898     6.47440999     1.26652098    -1.77421071     0.98176454    -0.42843516
Ti      0.05314400     2.77077700     1.21965900    -0.50795556    -0.32918849    -0.50592721
Ti      5.67137224     2.84392120     3.57027080     0.06175304     0.27250721     0.31383180
Ti      5.59726023    -1.05910778     3.61394983    -0.10727135    -0.27705678     0.51001373
Ti      1.94765322     2.99687920     3.63022282    -0.52011354    -1.59702024     1.51797190
Ti      1.87293821    -0.94700180     3.63370179     0.27253575     1.70895531     0.09636575
O       3.87969799     4.80152301     0.77486102    -0.69461797     0.70210708    -0.20251559
O       4.09403001     1.09690199     0.77606299    -1.07806138    -2.08281056    -0.13371156
O       0.17518699     4.67847602     0.70695202    -0.04717205    -0.45880839     0.03979915
O      -0.02136199     0.73814099     0.82628599     0.50712843     1.68611594     0.23264327
O       5.19114622     4.73649422     4.03897081     1.51829843    -1.21569876     0.51646591
O       5.61534523     0.88272121     4.01913381     0.49812982     0.28688354     0.74107731
O       2.12209523     4.87461721     4.00808480    -0.65837980    -0.45949179     1.00229095
O       1.91127821     1.07266620     4.08894383    -0.72659865    -0.96393316    -0.66682691
O       3.79751120     2.83523423     3.10980780     0.22546346    -0.07374029     1.66306573
O       3.75424022    -0.83668675     3.17944980    -0.61319882     0.80052355    -0.26010858
O      -0.00299678     3.16176221     3.19286179     0.01941389    -0.47782762    -0.19004882
O      -0.09040480    -1.18051179     3.19775981     1.01841228     0.34535996     0.48505807
O       5.61230902     6.45147799     1.70023899     0.29106287     0.52101702    -0.63782305
O       5.70033501     2.86688199     1.63388598     1.46581525    -0.07291240    -0.07520608
O       1.89721802     6.45891701     1.71928699     0.34661003     0.92729827    -1.19940181
O       1.94823701     2.64539999     1.72831200    -1.48293855     0.16219270    -1.43717135
