# total energy = -4986.54008677 eV

CRYSTAL
PRIMVEC
        4.67977376     0.00000000     0.00000000
       -0.00000803     3.45896341     0.00000000
       -2.33991552    -1.72952695     5.31296135
PRIMCOORD
6 1
Ti     -0.00020210     2.59434993     1.32824003    -0.00102947    -0.00374713     5.34535657
Ti      2.34005208    -0.86491347     3.98472053     0.00102947     0.00374713    -5.34535657
O       0.00004881     0.86473267     0.86543784     0.00075436     0.00195327    -1.42577622
O       2.33980101     0.86470374     4.44752272    -0.00075436    -0.00195327     1.42577622
O      -0.00002095    -0.86472934     3.52191835    -0.00261250    -0.00006659    -1.95015059
O       2.33987071     2.59416563     1.79104227     0.00261250     0.00006659     1.95015059
