# total energy = -39032.68632287 eV

CRYSTAL
PRIMVEC
        5.93200024     0.00000000     0.00000000
        0.00000000     9.29399984     0.00000000
        0.00000000     0.00000000     9.29399984
PRIMCOORD
46 1
Ti      4.46728000     7.09383699     7.00724402    -0.99772801     0.71751520    -0.67676628
Ti      4.56505201     6.82430501     2.19215200    -1.44609617     0.79963395     0.92685784
Ti      4.41126199     2.21602599     7.26828800     1.75350920    -0.89797560    -2.40215326
Ti      4.37217600     2.49583201     2.15298902     0.50124215    -0.85477848     1.10828831
Ti      1.39882201     6.79288802     7.02210098     0.33255715     3.00823604     1.71645728
Ti      1.59279299     6.93414199     2.18548199     0.98081374     0.94151956     0.34400396
Ti      1.45179599     2.47186800     6.80118700    -0.49777347     0.06504662    -0.72871441
Ti      1.47158600     2.12656101     2.72599300    -0.60472780     0.45609510    -1.30129647
Ti      3.19227102     4.57760600     4.53738001     1.13460716     0.73554764     0.74087599
Ti      2.90000600     4.81965998     9.09950402     0.78585694     1.28808614     0.44519619
Ti      2.85503398     0.00606898     4.79028900     1.22430527    -0.50827206     0.38680462
Ti      2.93576902     0.13985202     0.04332099    -0.70995615    -1.86850929     0.10237725
Ti      0.18229998     4.82631100     4.69128100    -1.82361961    -0.02236166    -1.05102160
Ti      5.93158097     4.46847398     9.20842801     0.29287447     0.65446992     0.71157029
Ti      5.82922201     9.05167502     4.62896402    -0.88755800     0.11470467     0.00125778
Ti      5.90136098     0.01768801     0.09575801     1.25564266    -0.97110345    -1.05128385
O       4.48428897     5.88712199     5.43909201     0.38608959    -1.87254181    -0.45808154
O       4.41857998     5.47536002     0.90406298     0.28007346    -1.31759393    -0.55922389
O       4.37984701     0.81912299     5.63408298     0.26163530     0.47684571    -0.73833908
O       4.48357998     0.82255597     1.05279301    -1.41772609     1.90405429     0.41473529
O       1.49029400     5.83663298     5.48734101     0.36209219    -1.22583971    -0.68611970
O       1.47408202     5.61797202     0.63562300    -0.52699150     0.03229795     1.64531174
O       1.18256198     0.90412801     5.38938099     2.01746467     2.07024712     0.10603876
O       1.41231502     0.82218899     1.10939698     0.96719229     0.36586400     0.22190351
O       4.36308997     8.61184200     8.35996500    -0.06581178    -0.51467668     0.05150487
O       4.39100101     8.24354199     3.87418502    -0.25663476     0.03922656    -1.19060427
O       4.30061399     3.69500200     8.44028998     0.76363489    -0.83952849     0.77822334
O       4.71777298     3.68524397     3.85062499    -0.99615912     0.08221825    -1.03921252
O       1.40945302     8.21349599     8.41494297     0.20957481     1.49970960     1.04057726
O       1.61763199     8.39436999     3.57745602    -1.60775845    -0.10707029     0.43209436
O       1.57424998     4.05667899     8.08606000    -1.66346374    -2.33902032    -0.39913383
O       1.59074200     3.89461899     3.77008601    -0.88922587    -1.89435454     0.03373211
O       2.98871902     6.13352999     7.77732000     0.46304428    -0.41894342     0.44226282
O       2.98725701     5.87524799     3.10076701    -0.22140677     0.78468838    -0.45438197
O       2.77424999     1.50961098     7.71786598    -0.47563498    -1.41766207     2.12541144
O       3.07212900     1.43231798     3.25328098     0.64589786     0.76720307    -0.11258634
O       5.75376202     6.00120599     7.97373398     0.02208784     0.59753668    -1.18304059
O       0.15846499     5.99584098     2.93585300    -0.24654909    -1.30923295     2.52693589
O       0.11709502     1.41577097     8.12878302    -0.70891125     1.64098406    -1.41383447
O       2.90638502     8.11797198     6.23009002    -0.62845909    -1.22891680    -0.22264553
O       3.10428498     7.85810700     1.41066801    -0.61032664     0.15571609    -0.71690507
O       3.09036101     3.35323600     6.03779801    -1.54889405    -0.57455769     0.09297447
O       5.83688698     8.02940200     6.10050102     1.25158057    -1.67464573     1.26531464
O       5.83705198     7.83335199     1.36786498     1.08450046     0.22496518    -0.11995923
O       5.67694998     3.07441399     6.18658900     2.10026476     1.56440681    -0.50269996
O       0.13427402     3.04953398     1.53460302    -0.24512932     0.87076586    -0.65270615
