# total energy = -19070.47477092 eV

CRYSTAL
PRIMVEC
        7.60600008     0.00000000     0.00000000
        0.00000000     7.60600008     0.00000000
       -1.89786986    -1.89786986     4.85670466
PRIMCOORD
22 1
Ti      4.24583001     6.55710701     1.31921698    -0.01510292     0.33539410    -1.40507935
Ti      3.42408701     2.62255498     1.21895101     1.56936390     1.08445675     1.08383634
Ti      0.06407802     6.96262998     1.04702497     0.78500257    -2.58781938    -3.18303564
Ti     -0.37148899     2.86740202     1.04432299    -1.85375784     0.00415413    -1.86833189
Ti      5.61713623     2.97126221     3.55672979    -0.41718787    -0.25860525    -0.49270197
Ti     -0.93348777    -0.53143779     3.91788680    -4.42093434    -1.01462685    -0.34064353
Ti      1.70334822     2.65043924     3.86116879     0.80106168     2.07976046     0.90667467
Ti      1.98772723    -0.95694477     3.90645181    -0.03112167    -1.60872699    -3.10176406
O       3.89921600     4.65656602     0.80745199    -0.97436130     0.43725894     2.03554056
O       3.88067998     0.79862102     0.98740501    -0.77423350    -0.45610436     0.88169845
O       7.01684498     4.88131299     0.48898502     1.12399287    -0.43046582     1.67020852
O       6.94800400     0.80905899     0.12234298     1.56023674     2.10377766     1.99883625
O       5.95395925     4.86868725     3.89950684     1.63961083    -1.74850584    -0.54811620
O       5.21910821     0.99600620     3.99204983     1.38885799     0.59268912    -0.59554690
O       2.12081721     4.78617724     4.23489282    -0.35542172    -0.83602536     0.24095359
O       2.08341825     0.89871823     4.13183380    -0.20166764    -1.50295691    -0.12508370
O       3.33494224     2.83521322     3.10960380     0.96601524     0.35768172    -1.87256598
O      -0.01837277     2.52062825     3.23322781    -1.35789881     0.64379727    -1.48973038
O       6.17373502     6.82839200     1.97228399    -2.44857969     0.19312463     1.84303685
O       5.39485602     2.50812400     1.55623398     1.92563845     1.88611981     1.24690939
O       1.70610503     6.71891200     1.89853298     0.55058601     0.11841786     1.05634378
O       1.62951202     2.32776198     0.47443101     0.53990101     0.60720377     2.05856094
