# total energy = -19913.92303158 eV

CRYSTAL
PRIMVEC
        6.44576012     0.00000000     0.00000000
        2.93838189     6.19909460     0.00000000
        0.00000000     0.00000000    11.85527615
PRIMCOORD
24 1
Ti      4.07756034     3.67357769     4.39822287     0.03809528    -2.36740145     0.49194812
Ti      5.30658145     2.52551683     7.45705335    -0.03809528     2.36740145    -0.49194812
Ti      6.75615210     2.52551893     1.52936789    -0.65408863    -1.28138841     0.41967104
Ti      2.62798981     3.67357583    10.32590852     0.65408863     1.28138841    -0.41967104
Ti      2.60836955     0.57403048     1.52941540     0.03809528    -2.36740145    -0.49194812
Ti      6.77577228     5.62506422    10.32586101    -0.03809528     2.36740145     0.49194812
Ti      1.15879886     0.57402820     7.45700583     0.65408863     1.28138841     0.41967104
Ti      8.22534304     5.62506649     4.39827045    -0.65408863    -1.28138841    -0.41967104
O       3.07477792     2.18280656     6.04965668     1.81071216     2.07186512    -0.89360652
O       6.30936387     4.01628795     5.80561960    -1.81071216    -2.07186512     0.89360652
O       2.21746002     2.18283160     0.12205673     0.05751329    -1.05899408     1.73027362
O       7.16668187     4.01626302    11.73321923    -0.05751329     1.05899408    -1.73027362
O       4.84017305     0.91674062     0.12201822    -1.81071216    -2.07186512    -0.89360652
O       4.54396876     5.28235396    11.73325768     1.81071216     2.07186512     0.89360652
O       5.69749103     0.91671563     6.04969513    -0.05751329     1.05899408     1.73027362
O       3.68665071     5.28237896     5.80558109     0.05751329    -1.05899408    -1.73027362
O       2.02147976     3.77064078     3.20240586     0.66010938     2.97818754     2.79095769
O       7.36266197     2.42845375     8.65287042    -0.66010938    -2.97818754    -2.79095769
O       4.60814618     2.42839606     2.72526996     0.66381229     2.11009332     1.72800642
O       4.77599561     3.77069846     9.13000607    -0.66381229    -2.11009332    -1.72800642
O       0.55228893     0.67109339     2.72523209     0.66010938     2.97818754    -2.79095769
O       8.83185280     5.52800114     9.13004394    -0.66010938    -2.97818754     2.79095769
O       3.30680477     0.67115107     8.65290816    -0.66381229    -2.11009332     1.72800642
O       6.07733702     5.52794345     3.20236799     0.66381229     2.11009332    -1.72800642
