# total energy = -19072.98094363 eV

CRYSTAL
PRIMVEC
        7.60600008     0.00000000     0.00000000
        0.00000000     7.60600008     0.00000000
       -1.89786986    -1.89786986     4.85670466
PRIMCOORD
22 1
Ti      3.89638998     6.63824401     1.15164400     0.24332852    -0.41083955     1.92444803
Ti      3.77544800     2.66071602     1.29823002     0.75430178     1.56605900    -0.06118662
Ti      0.35670600     6.79252998     0.93254002    -0.84653346     0.07634508     2.60284645
Ti      0.04258998     2.91069501     1.06262898    -0.38477859    -0.27000064    -0.30490672
Ti      5.78924325     2.86924424     3.57022280    -1.82091687    -0.38454719    -0.39607139
Ti      6.04781825    -0.86582680     3.58199080    -1.21084374    -0.30089451    -0.62001507
Ti      1.76881121     2.82605020     3.79351380     2.87047191    -2.41086005    -0.73617113
Ti      1.06393822    -1.11811380     4.03028379     2.05493182     2.77756146    -3.92431503
O       3.89344501     4.82604000     0.86684398    -0.56484021    -0.53499946    -0.43222703
O       4.05534102     0.89455901     0.59912099     0.11872330    -0.28111784     3.62309965
O       0.14881200     4.71450500     0.79711901     0.17088304     1.05679578    -0.54879137
O       7.33567502     1.01099499     0.55596198     0.74792236     0.53992132     1.19669316
O       5.57909622     4.70345424     4.07836584     0.61388710     0.84569939    -2.74446107
O       5.59227120     1.01311821     3.81577179     0.95427969    -0.91914735     0.84099067
O       1.65437721     4.79390820     4.16462882    -0.16338210    -1.97459305    -1.12555019
O       2.04756723     0.85781521     4.17322679    -2.08874313     1.67865408    -0.24294440
O       3.74882325     2.76381620     3.32884283    -1.26147084     0.51170088    -0.50982038
O       0.05236320     2.78569324     2.98073882    -0.18280576    -0.08646237     1.70140732
O       5.93443001     6.68315200     1.69771799    -1.23133313    -0.28652076     0.38123792
O       5.57264301     3.02160199     1.69347399     1.73478874    -0.12807595    -0.38901474
O       1.98233603     6.70556499     2.03056799    -0.02865753    -0.14844424    -0.33671719
O       1.94160599     2.94488902     1.47483700    -0.47921293    -0.91623403     0.10146940
