# total energy = -4987.84076987 eV

CRYSTAL
PRIMVEC
        3.64859162     0.00000000     0.00000000
        1.23905367     3.43175856     0.00000000
       -2.44385593    -1.71590265     4.73161700
PRIMCOORD
6 1
Ti      0.92918506     2.57395055     1.18290430     0.00069523    -0.00069523     0.00000000
Ti      1.51460366    -0.85809509     3.54871280    -0.00069523     0.00069523     0.00000000
O       0.30980142     0.85793491     0.77074179     0.00016378     0.00050034    -0.91628237
O       2.13398712     0.85792043     3.96087540    -0.00016378    -0.00050034     0.91628237
O      -0.30977184    -0.85791418     3.13655029     0.00050034     0.00016378    -0.91628237
O       2.75356033     2.57376948     1.59506690    -0.00050034    -0.00016378     0.91628237
