# total energy = -19517.63486634 eV

CRYSTAL
PRIMVEC
        5.93400000     0.00000000     0.00000000
        0.00000000     9.29699974     0.00000000
        0.00000000     0.00000000     4.64899994
PRIMCOORD
23 1
Ti      4.45589502     6.87330798     2.34232197     0.35222147     1.14869373    -0.49063686
Ti      4.44374701     2.33886401     2.29459500     0.10368106    -0.38409493     0.57662435
Ti      1.44201801     7.04308397     2.36599900    -0.22922807     0.40780180    -1.21581112
Ti      1.48213298     2.38568699     2.26112602     0.08664338    -1.26268132     0.30335352
Ti      2.92357900     4.65304699     0.05174999     0.09741862    -1.19048240     0.05968510
Ti      2.99369202     9.25769500     4.61291799    -1.06264247     0.58936700     0.93279966
Ti      0.00464200     4.69856200     0.07820599    -0.41114449    -0.57675059    -0.91529970
Ti      5.86581498     9.23576002     4.56424300     0.69806917     0.96930779     0.74610947
O       4.46786400     5.53551599     1.03812898    -0.29165551    -0.21636818    -0.76317029
O       4.30445698     1.01606498     0.79158699     1.11944151    -0.67006701    -0.25165581
O       1.56243600     5.66014802     0.93417300     0.27039402    -0.45102026    -0.73912378
O       1.52166998     0.86380100     0.93079802    -0.34007197    -0.03925845    -0.80432261
O       4.41210798     8.25816199     3.68059002     0.48146316     0.75374745     1.40931138
O       4.54267400     3.67945499     3.88514200    -0.63608576     0.83066126    -0.96267640
O       1.36194301     8.32235701     3.69961299     0.74166712     0.70834895     0.90330010
O       1.50992902     3.69606401     3.75083798     0.69905544     1.08217027     0.47301862
O       3.08714700     1.40336198     3.10332998    -0.65338132    -0.19466961     0.50839676
O       0.12620999     5.99356398     3.23879703    -0.54990646     0.06864899     0.11451235
O       0.00702102     1.41121201     3.20216701    -0.12171633    -0.07469237    -0.19767086
O       3.05541298     7.96391499     1.49101601    -0.28742990    -1.23180338    -0.01859654
O       2.95793202     3.36066300     1.43391498     0.25235953    -0.40336253     0.43144978
O       5.90768201     7.87799200     1.46898499    -0.03216040     0.24072271    -0.67560517
O       0.10604299     3.26599398     1.36107299    -0.28699204    -0.10421893     0.57600831
