# total energy = -19961.45943985 eV

CRYSTAL
PRIMVEC
        7.60600008     0.00000000     0.00000000
        0.00000000     7.60600008     0.00000000
       -1.89786986    -1.89786986     4.85670466
PRIMCOORD
24 1
Ti      3.81435502     6.55123499     1.20284201    -0.81072209     0.79910070     0.90623630
Ti      3.79254800     2.85211102     1.22399799     0.10873225    -0.14204656    -0.09939400
Ti     -0.01059000     6.69508998     1.22883498     0.96221103     0.48516966    -0.60954631
Ti     -0.03265500     2.91940702     1.20380897     0.11311855    -1.05417171     0.37941732
Ti      5.70117821     2.86888821     3.67272179     0.74325015     0.14587879    -0.30747140
Ti      5.74898424    -0.94681679     3.62046083    -0.62719462    -0.15039159     0.46846057
Ti      1.92208221     2.85321324     3.64295483    -0.54726131    -0.45366644    -0.70654327
Ti      1.89828823    -1.00325879     3.71572580     0.36973403     0.41643556    -1.88969596
O       3.65669698     4.76040398     0.70920700     0.55653245    -0.32230487     1.25355544
O       3.71622201     0.88151902     0.68071700     0.26141161     0.39166915     2.10362622
O       0.03319201     4.78856399     0.78633803    -0.09379902    -0.45685075    -0.38670383
O      -0.03225002     0.99369698     0.83879002     0.30815840    -0.50720685    -0.95024434
O       5.75782520     4.72939721     3.89812182     0.15488640     0.63131919     1.14756398
O       5.73266621     0.90184525     3.96490680    -0.32806620     0.62902242     0.90180448
O       1.84351923     4.70083820     4.04985779     0.04104202     0.21017336    -0.19680491
O       1.81404025     0.93142022     4.18164182     0.63224684     0.12704237    -1.19752671
O       3.84729424     2.99899824     3.23319383    -0.55372250    -0.91106252     0.11200218
O       3.83077920    -1.01761780     3.24642379    -0.72165647     0.07014512    -0.56802889
O      -0.05937676     2.66326025     3.21883583     1.33967560     0.73986966    -0.62888230
O       0.00270621    -0.98504678     3.14248280     0.14907030     0.03358556     0.67816856
O       5.72200900     6.65061501     1.57073699    -1.04586628    -0.07863439     0.10583539
O       5.75677500     2.92466402     1.56907003    -1.23953726    -0.00710885    -0.06210271
O       1.85719100     6.68993299     1.61162000     1.13257830    -0.08639167     0.11291801
O       1.97054903     2.96995397     1.71383101    -0.90482296    -0.50957561    -0.56664409
