# total energy = -19071.03754776 eV

CRYSTAL
PRIMVEC
        5.93400000     0.00000000     0.00000000
        0.00000000     9.29699974     0.00000000
        0.00000000     0.00000000     4.64899994
PRIMCOORD
22 1
Ti      4.34900899     6.67393098     2.38220199    -0.16426861     1.56507941    -0.79481210
Ti      4.27516098     2.40517098     2.20408400     2.71787559    -1.44273317     1.35872877
Ti      1.49385103     7.01152998     2.54654698     0.16882307     1.50785100    -0.40246341
Ti      1.61778698     2.59152302     2.14177401    -2.30247876    -0.70428404     0.52460963
Ti      3.04624398     4.50440898     4.59743199    -2.98480402     3.38328685     2.10095073
Ti      2.97032001     0.00327201     4.53003000     2.10603586     0.19288577     0.90310778
Ti      5.79832001     4.60341598     4.49298902     2.46950282     0.58360232     1.39978339
Ti      0.05537898     9.14710902     0.32270800    -1.62345067    -1.36070132     1.31253040
O       4.56873302     5.68282898     0.71250102    -0.67667269    -1.10756300     2.15510795
O       4.59302500     1.14671302     0.87229102     0.39750967    -2.22837979    -0.09776366
O       1.60326001     0.80303299     1.07775001    -0.77211825     0.71493638     0.64124828
O       4.57693902     8.07871502     3.83371402    -0.46502455     3.36755298     0.67806880
O       4.34890898     4.17493201     3.58852000     1.94318110    -4.09924962    -5.60451435
O       1.43620399     8.71461801     3.79076800    -0.47098488    -1.85443944    -2.37787176
O       1.57366403     3.90760801     3.71978898    -1.55031202    -0.04491410    -0.98874791
O       2.85209202     6.18457099     3.47356900    -0.52591318    -0.71811555     0.21291365
O       2.82385703     1.73553898     3.42556802     1.10963403    -1.36353545    -0.70535156
O       0.00643099     6.16572598     3.32262500     1.83020164    -2.10070725     0.83639714
O       3.07983599     7.66548903     1.31435199    -1.26858303     0.73642413     1.18202115
O       3.05516299     3.03825901     1.10979302    -0.75112827     1.94565681    -0.60668287
O       0.01074801     7.54518000     1.56792901     0.51769387     3.31775686    -2.74694552
O       5.90212199     3.30296998     1.30272099     0.29528051    -0.29040981     1.01968601
