# total energy = -19960.54542089 eV

CRYSTAL
PRIMVEC
        5.93400000     0.00000000     0.00000000
        0.00000000     9.29699974     0.00000000
        0.00000000     0.00000000     4.64899994
PRIMCOORD
24 1
Ti      4.46533199     6.89001803     2.30889099    -0.85144812     1.05303169     0.26132188
Ti      4.43078699     2.32045701     2.33698898     0.21604679    -0.20444700     0.93017508
Ti      1.47719300     7.00271399     2.35182002     1.29014791     0.65095805    -0.01903851
Ti      1.45120902     2.38762299     2.31445899    -0.17420387    -1.05084085     0.38564788
Ti      2.96465601     4.66959600     0.03520902    -0.00431894    -0.24882503    -0.29640331
Ti      3.00906700     0.01266401     4.63265699    -0.50753415    -1.00574317    -0.46766995
Ti      0.02320998     4.65563001     0.00650200    -0.23393011    -0.16914086    -0.03938674
Ti      5.92797500     9.26175998     0.08104799     0.32151374    -0.05348051    -1.01624304
O       4.34416702     5.59249298     0.83197200     0.96680534    -0.54559935     0.16135709
O       4.40160201     0.88178800     0.77456299     0.92015085     0.72872701     1.02535529
O       1.51261099     5.59001299     0.91991602    -0.34926855    -0.03923968    -0.17695213
O       1.45761000     0.93348502     0.97797099     0.08824235    -0.59922281    -1.01013281
O       4.47275799     8.33218500     3.59260700     0.01628306     1.11090493     1.56429522
O       4.48091700     3.67702400     3.63614500    -0.35629924     0.74357668     1.17155496
O       1.45273199     8.34812101     3.71868798    -0.30438787     0.08757078    -0.06708165
O       1.42394200     3.72525501     3.85200201     0.62020636    -0.28805699    -0.93863247
O       3.00923200     6.18561997     3.23946998    -1.53673247    -1.22834653     0.13148858
O       3.01218200     1.38277101     3.27476801    -0.20530343     0.91624766    -1.16714397
O       5.83040398     5.91941498     3.25955199     1.22979895     1.28325683    -1.11604868
O       5.91531301     1.39886498     3.15577901     0.44716746     0.22447744     0.06295348
O       3.02973698     7.87512201     1.34849799    -1.32108137    -0.21620749     0.34857101
O       3.05090502     3.27444399     1.35826798    -0.60034433    -0.46808982     0.45982757
O       5.83825199     7.90073001     1.38181399     1.26819942    -0.54987535     0.18411522
O       0.12036401     3.32350200     1.48279201    -0.93970950    -0.13163616    -0.37193001
