# total energy = -19961.03800608 eV

CRYSTAL
PRIMVEC
        7.60600008     0.00000000     0.00000000
        0.00000000     7.60600008     0.00000000
       -1.89786986    -1.89786986     4.85670466
PRIMCOORD
24 1
Ti      3.81717601     6.50808001     1.20702399    -1.20573959     1.22411064     0.91470577
Ti      3.80481602     2.85930301     1.23207799    -0.37965232    -0.39385407    -0.30907782
Ti     -0.01210599     6.72053901     1.22569500     1.31271963     0.54636862    -0.18159400
Ti     -0.03657297     2.94456400     1.20733599     0.39707181    -1.27054169     0.56587970
Ti      5.70237520     2.87402324     3.68049382     1.02877743     0.03936695    -0.51256657
Ti      5.76491321    -0.95436376     3.61135183    -0.83578110     0.10207798     0.39406181
Ti      1.93101922     2.84908523     3.64406679    -0.77915253    -0.57908464    -0.88114849
Ti      1.90436324    -1.03161475     3.72374580     0.45071044     0.58657529    -1.30156721
O       3.58587899     4.73064300     0.69802199     0.74851654    -0.06483090     1.32343265
O       3.66403698     0.83182002     0.71948601     0.55433288     1.00964250     1.33482624
O       0.05113498     4.81304299     0.77715601    -0.21133833    -0.20457890    -0.53849282
O      -0.03983900     1.02179301     0.84203599     0.27978704    -0.85973042    -1.08068340
O       5.81271723     4.76365223     3.83071681     0.11813426     0.12061049     1.52349772
O       5.73966521     0.91687124     3.94463280    -0.45145554     0.64203864     0.94141594
O       1.80281021     4.68610421     4.05365580     0.14477065     0.12560126    -0.17310935
O       1.77082324     0.91762023     4.20463880     0.94785604    -0.21371377    -1.15435067
O       3.85550623     3.06782822     3.25643382    -0.49939429    -1.15402440     0.07548659
O       3.82772024    -1.05517377     3.25102980    -0.54031856     0.09279218    -0.33184649
O      -0.03377379     2.59303023     3.19377780     0.48097439     1.13492161    -0.66952168
O       0.02727925    -1.00241279     3.13467383    -0.26604731     0.22139752     0.26106246
O       5.69356398     6.64663703     1.55528702    -0.05234177    -0.05721067     0.15429684
O       5.73249200     2.97396101     1.54377202    -0.91770059    -0.08537968     0.11900638
O       1.89196700     6.70826898     1.61210701     0.14741323    -0.22146025     0.18878049
O       1.94281501     3.02934698     1.73718302    -0.47214290    -0.74109428    -0.66249408
