# total energy = -19517.97367584 eV

CRYSTAL
PRIMVEC
        5.17600016     0.00000000     0.00000000
        0.00000000     5.50899976     0.00000000
        0.00000000     0.00000000     9.26300011
PRIMCOORD
23 1
Ti      1.85390799     3.27186103     3.48775698    -0.66260773    -1.29835641     2.30491539
Ti      3.39943100     2.16302201     5.83767699    -1.29462600     1.28284906    -2.27379629
Ti      4.37385497     2.06948702     1.42535602     0.02205622     0.31515489     0.01901460
Ti      0.88473801     3.33904600     7.79252702     0.46153916     1.07592351     0.16537265
Ti      2.01947501     0.32554101     1.35010299    -0.58287393    -0.23894787    -0.62130654
Ti      3.25451200     5.21698499     7.96839897     1.42984525    -2.03236087    -0.62816804
Ti      0.68303501     0.55421501     5.92147501    -0.23395042    -0.10412380    -3.19189155
Ti      4.47026599     4.89560400     3.37428498     0.62161456    -0.25808512     2.60339075
O       1.64435898     1.92149398     4.79599401    -0.01899146    -0.03624408     0.06889453
O       3.49648100     3.58321199     4.45975103     0.50550658    -0.25655325     0.68995168
O       5.13076900     2.99601601     0.02674800    -0.27844595    -0.56306537     0.20055049
O       3.45862101     0.88376601     0.04961301     0.34318121     1.70596718     1.23081891
O       1.97912403     4.60017398     9.12828301    -1.34167258    -0.78267572     0.13964669
O       4.24194500     0.86036299     4.76265002     0.23689665    -0.67090057    -0.79877854
O       0.89338201     4.69652303     4.51472000     0.08925819     0.19357817     0.14527355
O       0.17517698     3.32355699     2.59866702    -0.75469002    -0.32665364    -0.86307466
O       5.02715101     2.12612502     6.75432798     0.48920809    -0.37176263     0.92171640
O       2.64326201     1.90208698     2.23424498    -0.11533382     0.97847867    -0.33694628
O       2.65459402     3.57590701     6.97391802    -0.72778933    -1.13539264     0.82758854
O       0.07602002     0.54060700     1.95797800     1.57794239    -0.03675548    -0.38228487
O       5.07879300     4.77607699     7.16049502    -0.27425171     0.72333721     0.57372646
O       2.42138000     0.67242802     6.72854499    -0.25932259     1.03051833     0.38653748
O       2.72853098     4.63545698     2.48326198     0.76750723     0.80607045    -1.18115186
