# total energy = -4985.58387886 eV

CRYSTAL
PRIMVEC
        3.36733238     0.00000000     0.00000000
        0.00000000     5.27610501     0.00000000
        0.00000000    -0.00006847     5.27610501
PRIMCOORD
6 1
Ti      1.68366613     2.63801821     2.63805245     0.00000000     0.00000000     0.00000000
Ti      0.00000000     0.00000000     0.00000000     0.00000000     0.00000000     0.00000000
O       1.68366613     1.02822180     1.02823514    -0.00000000    -0.83399547    -0.83399547
O       1.68366613     4.24781462     4.24786975    -0.00000000     0.83399547     0.83399547
O       0.00000000     1.60976865     3.66628866     0.00000000     0.83452177    -0.83452177
O       0.00000000     3.66626777     1.60981623     0.00000000    -0.83452177     0.83452177
