# total energy = -19938.46491952 eV

CRYSTAL
PRIMVEC
        6.34029708     0.00000000     0.00000000
        0.00002392     4.04879589     0.00000000
        0.00000000     0.00000000     9.68340258
PRIMCOORD
24 1
Ti      2.29806673     2.39931268     3.59247331    -0.11997492     1.83177978    -1.80057532
Ti      4.04225385     1.64948316     6.09092938     0.11997492    -1.83177978     1.80057532
Ti      5.46810619     1.64948452     1.24918935    -0.11885623    -1.83248015     1.80289703
Ti      0.87221445     2.39931147     8.43421339     0.11885623     1.83248015    -1.80289703
Ti      2.29805498     0.37491478     1.24922819    -0.11997492     1.83177978     1.80057532
Ti      4.04226561     3.67388116     8.43417460     0.11997492    -1.83177978    -1.80057532
Ti      0.87220264     0.37491332     6.09089053     0.11885623     1.83248015     1.80289703
Ti      5.46811794     3.67388262     3.59251210    -0.11885623    -1.83248015    -1.80289703
O       2.00675236     1.42564982     4.94136624     2.19808370    -1.34896448     2.14757770
O       4.33356827     2.62314597     4.74203645    -2.19808370     1.34896448    -2.14757770
O       1.16344987     1.42566617     0.09969606    -2.19773095    -1.34930490     2.14736739
O       5.17687082     2.62312967     9.58370631     2.19773095     1.34930490    -2.14736739
O       4.33355652     0.59874797     0.09966463    -2.19808370     1.34896448     2.14757770
O       2.00676412     3.45004782     9.58373774     2.19808370    -1.34896448    -2.14757770
O       5.17685901     0.59873167     4.94139761     2.19773095     1.34930490     2.14736739
O       1.16346152     3.45006417     4.74200502    -2.19773095    -1.34930490    -2.14736739
O       0.23037212     2.46270718     2.61572862     0.76261288     0.01420766     1.80107746
O       6.10994852     1.58608861     7.06767402    -0.76261288    -0.01420766    -1.80107746
O       3.40052796     1.58605097     2.22600348     0.76378993    -0.01403900    -1.80158937
O       2.93979263     2.46274487     7.45739900    -0.76378993     0.01403900     1.80158937
O       0.23036032     0.43830918     2.22597257     0.76261288     0.01420766    -1.80107746
O       6.10996027     3.61048660     7.45742991    -0.76261288    -0.01420766     1.80107746
O       2.93978087     0.43834687     7.06770487    -0.76378993     0.01403900    -1.80158937
O       3.40053971     3.61044891     2.61569771     0.76378993    -0.01403900     1.80158937
