# total energy = -19959.41586741 eV

CRYSTAL
PRIMVEC
        7.60600008     0.00000000     0.00000000
        0.00000000     7.60600008     0.00000000
       -1.89786986    -1.89786986     4.85670466
PRIMCOORD
24 1
Ti      3.94983202     6.78140799     1.09642102    -2.36044404     0.69551940     0.88723944
Ti      3.88435401     2.97410997     1.22284798     0.19428343    -1.01137131     0.33850128
Ti     -0.09371703     6.58631701     1.20986102     2.84290350     0.52645028    -0.26950930
Ti      0.08914298     2.74433100     1.28994300    -1.35239716    -0.95926300    -0.29342803
Ti      5.62698020     2.68292125     3.70546384     0.53827222    -0.17435968    -0.11391071
Ti      5.72980024    -1.03505377     3.71253682    -0.85998522     0.54996046    -0.42529507
Ti      1.92738621     2.91767523     3.61531780    -0.31130029     0.36474634    -0.26554440
Ti      1.89219222    -0.71914580     3.61993683     0.72286721    -1.45845984    -1.66212702
O       3.79771197     4.88480598     0.59243298     0.33681901    -0.42995160     2.52545133
O       3.81566003     0.98863000     0.63823200     0.43752119     1.06883112     1.29841786
O      -0.07616099     4.51626901     0.77146502    -0.21684975     1.62051884     1.65088127
O      -0.28184002     0.85919197     0.74001898     0.54580992     0.85231741     0.90878375
O       5.63530421     4.70313621     4.11169882    -0.43166884    -1.27194809    -0.20039340
O       5.64480522     0.84136622     4.01016182     0.16302163    -0.39549906     1.22062551
O       2.07304722     4.91631822     4.00881983    -0.09233452    -1.86448474    -1.38461361
O       1.83499223     1.04294523     4.23327179     0.08367041     0.24718724    -1.95691619
O       3.78315722     2.52125220     3.11217179    -1.78005971     1.10855648     1.39296919
O       3.70211420    -0.68939778     3.08653680     0.69659592    -0.68007272     0.12171838
O      -0.11846580     2.56350420     3.41008080     2.45451611     1.32557875    -1.86747751
O      -0.05671579    -0.97067877     3.32214683     0.83236025    -0.14924668    -0.83394610
O       5.73191700     6.69939801     1.70921299    -0.74824683    -0.76441625    -0.48104124
O       5.64048401     2.68807300     1.80855702     0.78897749     1.07306033    -2.13456123
O       1.88285499     6.89691903     1.40853199    -1.41202235    -0.94304551     1.04133522
O       1.92702801     2.69378198     1.56917300    -1.07230982     0.66939184     0.50284009
