# total energy = -39031.66370514 eV

CRYSTAL
PRIMVEC
        5.93200024     0.00000000     0.00000000
        0.00000000     9.29399984     0.00000000
        0.00000000     0.00000000     9.29399984
PRIMCOORD
46 1
Ti      4.38916301     7.23081601     6.88270998    -0.34968147    -2.72246501     0.14062243
Ti      4.44558802     6.86848702     2.43860101     0.71655618     0.02490783    -1.81407130
Ti      4.43249797     2.09358898     6.98718201     1.38816817     1.22117187    -0.18301582
Ti      4.56177698     2.64039799     2.00042902    -0.62266562    -0.92997607     1.49798825
Ti      1.56160799     6.81053402     7.06141600    -1.88650599     0.37834517     0.98031161
Ti      1.51841898     7.03482600     2.28569900    -1.31858997     0.02399277    -1.21512823
Ti      1.56411502     2.48985199     6.78927199    -2.00561265    -0.27711746     0.36454554
Ti      1.50732599     2.05093401     2.65621299     0.23913994     1.62046665    -0.69259554
Ti      2.93707799     4.69961501     4.84647598     0.60665510     0.79327381    -1.78595834
Ti      2.93458303     4.84001901     9.13977600    -0.11937791     0.02879148     0.76031585
Ti      2.93898700     9.19276701     4.56894098    -0.59383609     0.09544067     0.54089911
Ti      2.95675100     0.16655700     9.23273000    -0.81833205    -1.97684431     0.92556457
Ti      5.89970598     4.59857703     4.74203301    -0.64528337    -0.20329412    -0.86555397
Ti      5.91334002     4.64360101     9.29380002     0.23596591     1.67321491    -0.98628582
Ti      5.81779702     9.06208399     4.83475301     1.27827866     1.04346615    -1.25502688
Ti      5.91837298     0.01883400     9.00020502     1.23093281    -1.40683104     2.24478858
O       4.25154798     5.54763399     5.86460603     0.70158309    -0.31638027    -2.02613880
O       4.37521702     5.63003800     0.80535502     0.19076513    -1.55692258     1.51118778
O       4.42475802     0.95387702     5.44067599     0.16410149    -1.01227994     0.21077577
O       4.42063498     0.89902002     0.75872699     1.26247100     1.75554629     0.56502481
O       1.36040797     5.40463701     5.67840099     1.37336683     1.26957624     1.21358531
O       1.36815402     5.82462399     0.75138698     0.93129299    -2.00375168     0.28605102
O       1.50937799     0.71107399     5.53470597    -0.59225306     2.46100687    -0.24038358
O       1.48308200     0.66568799     0.88080400    -0.15846409     1.61485419     1.19668699
O       4.41845499     8.51757097     8.18068102     0.01742540     0.77023414     0.79955502
O       4.42961899     8.03052502     3.88244198    -0.26629748     2.55038847     1.15228530
O       4.33240399     3.76344198     8.45741998     0.53515115    -1.46414815     0.44769993
O       4.54701997     3.95258998     3.72036102    -1.29748249    -0.81712800    -1.53184943
O       1.62715601     8.10238099     8.36445999    -1.14898683     2.47529218     0.84600484
O       1.38707200     8.38067700     3.78844402     0.55525642     0.87487140    -1.27556435
O       1.41826499     3.67108399     8.43257500     0.73798041     0.82474027    -0.59348719
O       1.40884098     3.58643002     4.03988899     0.35946915    -1.23447605    -1.41437569
O       3.11040799     6.09881400     7.88825402    -0.75967333     0.14595644    -0.28839766
O       2.81679801     5.94877998     3.34901697     0.63468348     0.56090693    -0.74028952
O       2.84450298     1.47595002     7.82526298     0.17501969    -0.38513340    -0.02766997
O       3.33947802     1.67668002     3.13726802    -1.36492924    -1.00271672    -0.31909793
O       5.83212402     6.05966103     7.94741498     0.50015920     0.15333139    -0.77005622
O       0.12635800     6.21033800     3.35036299    -0.31587402    -1.39913444    -0.26561717
O       0.22625000     1.48942599     7.91522201    -1.59197547    -0.70767584    -0.58690465
O       2.77487601     7.97586302     6.08075101     0.94389397    -0.91151863    -0.44995222
O       3.17365203     7.83199502     1.37753898    -0.93225124     0.17064109     1.17293950
O       3.07233702     3.18897202     6.01595702     0.11619797    -0.66431134     0.65692044
O       5.91345798     7.92705197     6.16230601     1.58606733    -0.75811653     0.30705411
O       5.91728700     7.90201199     1.40057300    -0.18108055    -0.29601842     0.58848074
O       5.69972800     3.12518701     5.98947302     1.32058669     0.05675172     1.15625663
O       0.39756198     3.25562200     1.59287898    -0.83201418    -0.54092791    -0.23812358
