# total energy = -19072.83577559 eV

CRYSTAL
PRIMVEC
        5.17600016     0.00000000     0.00000000
        0.00000000     5.50899976     0.00000000
        0.00000000     0.00000000     9.26300011
PRIMCOORD
22 1
Ti      1.73006199     3.35529699     3.20493598     1.14889402     0.88367177    -0.38492231
Ti      3.63424499     2.28752398     6.01809198     0.17574679    -0.18146827    -0.43239106
Ti      4.38276600     2.08507902     1.19526102     0.43731833     0.44916443    -0.30227417
Ti      0.78588299     3.30584003     8.13575800     0.04301431    -0.12668601     1.42733405
Ti      1.76339301     0.44713499     1.30642999    -0.29372396     1.34943114    -1.33131283
Ti      3.20081797     5.09432700     8.01356298     0.71226243    -0.67589931     0.23375193
Ti      0.55754200     0.35775102     6.00197499     1.78622702     0.62697042    -1.43426575
Ti      4.33419298     4.94688599     3.48198900     0.69688363    -0.54913076     0.14157836
O       3.33373000     3.37954299     4.48340398    -0.06517749     0.40265007     0.92902502
O       1.03533799     2.12182900     0.41647398    -1.48264467    -0.10268656    -1.52776498
O       4.38309801     3.92738400     9.03099901     1.03869469    -1.11950655     0.48741475
O       3.40753302     0.91329098     0.05917202     0.57985571     0.81531151    -0.13968397
O       1.45345099     4.88231202     9.09860802     0.57049921     0.52359687    -1.23320206
O       4.70976701     1.03542102     4.61642400    -2.04957544    -0.16935040     0.29422944
O       0.95857802     4.73853901     4.29608597    -0.21278021    -1.06799268     1.07265564
O       0.06340401     3.42133502     2.37313602    -0.39054403    -0.09307963     1.00497158
O       0.44636800     2.37950303     6.40119499    -1.30478623    -0.48954285     1.38866747
O       2.77744400     1.91779799     2.32449500    -0.23061955    -0.13422655     0.41046212
O       2.70135001     3.30559100     7.71276101    -1.39357597    -1.21888950    -3.30653477
O       0.03646698     0.50363101     2.09322798    -0.16796689     0.91489115    -0.36434037
O       2.50118199     0.50279798     6.30163801    -0.08431910     0.86718611     0.99892074
O       2.73648700     4.64993299     2.12892802     0.48631766    -0.90441493     2.06768116
