# total energy = -4987.59184506 eV

CRYSTAL
PRIMVEC
        3.20712428     0.00000000     0.00000000
        0.00000000     3.71419201     0.00000000
        0.00000000    -0.00005860     4.47021729
PRIMCOORD
6 1
Ti      1.60356219     1.85706656     2.23510865     0.00000000     0.00000000     0.00000000
Ti      0.00000000     0.00000000     0.00000000     0.00000000     0.00000000     0.00000000
O       1.60356219     0.72382984     0.87117949     0.00000000    -0.71227092    -0.89124445
O       1.60356219     2.99030323     3.59903775     0.00000000     0.71227092     0.89124445
O       0.00000000     1.13321304     3.10628913     0.00000000     0.71124710    -0.88978483
O       0.00000000     2.58092008     1.36392816     0.00000000    -0.71124710     0.88978483
