# total energy = -4985.23632239 eV

CRYSTAL
PRIMVEC
        2.68580439     0.00000000     0.00000000
        0.21028145     4.20299578     0.00000000
       -0.00000116    -0.00005462     4.20956947
PRIMCOORD
6 1
Ti      1.44804224     2.10147044     2.10478464     0.00000000     0.00000000     0.00000000
Ti      0.00000000     0.00000000     0.00000000     0.00000000     0.00000000     0.00000000
O       1.38388265     0.81909122     0.82038303    -1.16656084     1.65656392     1.67381758
O       1.51220178     3.38384966     3.38918620     1.16656084    -1.65656392    -1.67381758
O       0.06415901     1.28235708     2.92516852     1.16668889    -1.65773403     1.67495966
O       0.14612118     2.92058399     1.28440071    -1.16668889     1.65773403    -1.67495966
