# total energy = -19945.73358737 eV

CRYSTAL
PRIMVEC
        6.05563053     0.00000000     0.00000000
        0.00002383     4.29668135     0.00000000
        0.00000000     0.00000000     9.40820064
PRIMCOORD
24 1
Ti      2.19488903     2.54620937     3.49037533    -0.09185218     1.64304660    -2.45058618
Ti      3.86076544     1.75047198     5.91782541     0.09185218    -1.64304660     2.45058618
Ti      5.22259990     1.75047348     1.21368743    -0.08955001    -1.64427559     2.45308324
Ti      0.83305456     2.54620808     8.19451337     0.08955001     1.64427559    -2.45308324
Ti      2.19487711     0.39786880     1.21372514    -0.09161538     1.64408970     2.45127884
Ti      3.86077736     3.89881271     8.19447565     0.09161538    -1.64408970    -2.45127884
Ti      0.83304265     0.39786720     5.91778764     0.09003955     1.64354308     2.45210108
Ti      5.22261182     3.89881431     3.49041305    -0.09003955    -1.64354308    -2.45210108
O       1.91665374     1.51293457     4.80093279     1.49467795    -1.38287195     2.00144772
O       4.13900073     2.78374684     4.60726796    -1.49467795     1.38287195    -2.00144772
O       1.11121384     1.51295188     0.09686270    -1.49340731    -1.38564848     2.00369897
O       4.94444073     2.78372952     9.31133773     1.49340731     1.38564848    -2.00369897
O       4.13898887     0.63540611     0.09683216    -1.49403698     1.38443389     2.00284151
O       1.91666560     3.66127524     9.31136828     1.49403698    -1.38443389    -2.00284151
O       4.94442881     0.63538885     4.80096328     1.49418122     1.38392199     2.00216711
O       1.11122560     3.66129261     4.60723741    -1.49418122    -1.38392199    -2.00216711
O       0.22002968     2.61348516     2.54138972     0.80268456    -0.26054901     1.30707631
O       5.83562479     1.68319624     6.86681102    -0.80268456     0.26054901    -1.30707631
O       3.24785172     1.68315618     2.16274057     0.80426631     0.26071433    -1.30477080
O       2.80780275     2.61352523     7.24546002    -0.80426631    -0.26071433     1.30477080
O       0.22001776     0.46514444     2.16271049     0.80296147    -0.25998593    -1.30493767
O       5.83563671     3.83153692     7.24549005    -0.80296147     0.25998593     1.30493767
O       2.80779089     0.46518450     6.86684100    -0.80375980    -0.26120721    -1.30686523
O       3.24786358     3.83149690     2.54135970     0.80375980     0.26120721     1.30686523
