# total energy = -39035.90255669 eV

CRYSTAL
PRIMVEC
        7.60600008     0.00000000     0.00000000
        0.00000000     7.60600008     0.00000000
       -3.79573973    -3.79573973     9.71340985
PRIMCOORD
46 1
Ti      1.94075746     4.66692847     6.07016361    -0.52797957     1.38534355    -0.11090895
Ti      3.77731103     6.69269000     1.25611201     0.82983311     1.51947882    -0.11043046
Ti      1.92774245     0.98582346     6.09824165     1.53844149    -0.54755699    -2.46798073
Ti      3.76516397     2.90864202     1.20915499     0.90709967    -2.34280215    -0.01516771
Ti     -1.89898056     4.78696646     6.11356360    -0.13610988    -0.38480713    -1.31209639
Ti      0.05205300     6.68150700     1.18040098    -0.83962387    -0.86596998    -0.01326664
Ti     -1.85646153     0.97049345     6.06687863    -1.21568873     0.31977953     0.13921346
Ti     -0.01623701     2.81395501     1.33061799    -0.69621848     0.88339461    -1.57200442
Ti      3.73355246     0.99359247     8.44033364     1.43006096    -0.51345695     0.71330399
Ti      5.66083701     2.83857599     3.58727199     0.27613093     0.13449266     2.13258945
Ti      3.82479945    -2.81409355     8.51719161    -1.25175155     0.71713879     0.06648412
Ti      5.67528398    -0.91775300     3.69130999    -0.28723630    -0.11738453    -1.36333464
Ti      0.02521043     0.88668845     8.29433962    -0.89165916    -0.09559211     4.03055049
Ti      1.92991499     2.77906699     3.44945101    -0.10461231     0.44411787     2.69490689
Ti     -0.01920956    -2.90861355     8.48039363     1.06334053     0.40546749     1.07453126
Ti      1.83648398    -0.96933900     3.73806200     0.52951915     0.87846014     0.77447518
O       1.98883247    -0.81359256     5.74398663    -0.78729342    -2.49936902    -2.02111718
O       3.87294002     0.94383800     0.98026799    -0.48270757     0.18558538    -1.69740154
O      -2.06638255     2.74290243     5.74047565     0.73957758     2.21964035    -0.47356113
O      -0.03357799     4.73184799     0.71504901     0.18982025     0.24361623     0.71329884
O      -1.78237254    -0.91903255     5.61258864    -0.51176953    -0.12173895     0.80264085
O       0.15216201     0.99852699     0.76107701    -0.41808595    -0.57384756     0.51775635
O       3.63958746     2.88463647     8.85100561     0.40322574    -0.09132433     0.26512454
O       5.92344599     4.82612801     4.17262300    -1.04343375    -1.50668887    -0.43672363
O       3.63631646    -0.93892454     9.00473060     0.36213950     0.01717960    -0.67749390
O       5.73668002     0.99159397     3.98636001     0.19412299    -0.59578164     0.52801171
O      -0.05372255     2.65922247     9.08655061     0.41283087     0.68250370    -1.07016707
O       1.94322200     4.55937901     4.11849700    -0.15621617     1.43670907     0.39147940
O      -0.05689454    -0.96221554     8.94597261     0.06361580     0.67011895     0.10385332
O       1.95895401     1.03917003     3.94259700    -0.61438333    -1.61692393     1.13055947
O       1.95919246     0.88152542     7.92794660    -0.46820809     0.64638740     2.19976263
O       3.80324500     2.72246402     3.25609699     0.34901581     1.24497721    -0.16954658
O       1.88832742    -2.82336357     8.03815861    -1.11501329    -0.51413778     0.66705214
O       3.73826198    -0.89451397     3.20879702    -0.33144874    -0.82562035     1.10635741
O      -1.83123057     1.12881143     7.99471062    -1.16029815    -0.83252994     0.50817204
O       0.00063501     2.82946498     3.28071898    -0.31731179     0.09374040    -0.67543188
O      -1.96290056    -2.68311953     8.08229961     0.97912735    -0.56667340     0.06633269
O      -0.06378999    -0.92407598     3.12242597     1.38640902     0.06181834     0.62398254
O       3.72193443     4.75799247     6.46402362     1.52910735    -0.25035329    -0.15960720
O       5.61845002     6.61385000     1.61495800     0.77060515    -0.45873537     0.15943185
O       3.81950143     0.85989345     6.44309265     0.51849811     0.45485429     0.07526290
O       5.64477601     2.72849902     1.77054998     0.79472905     0.92711829    -2.14582113
O      -0.01754154     4.79446246     6.48835863    -0.05981957    -0.79775164     0.59355790
O       1.86619802     6.64683801     1.47391602    -0.21597069    -0.67456696     0.85331783
O       0.09113147     0.85481944     6.56618060    -1.09019442     0.44588036    -4.04075108
O       1.93373898     2.82017898     1.65131602    -0.54421687     0.77580958    -2.39919701
