# total energy = -4984.17344227 eV

CRYSTAL
PRIMVEC
        4.26855629     0.00000000     0.00000000
        1.82828498     3.85719416     0.00000000
       -3.04846104    -1.92862265     5.59816832
PRIMCOORD
6 1
Ti      1.37110590     2.89304408     1.39954202     0.00029156    -0.00029156     0.00000000
Ti      1.67727461    -0.96447234     4.19862595    -0.00029156     0.00029156     0.00000000
O       0.45711558     0.96429348     0.91189581    -0.00061449    -0.00096185    -1.88425088
O       2.59126478     0.96427813     4.68627222     0.00061449     0.00096185     1.88425088
O      -0.45707712    -0.96426919     3.71097979    -0.00096185    -0.00061449    -1.88425088
O       3.50545741     2.89284075     1.88718824     0.00096185     0.00061449     1.88425088
