# total energy = -19516.94227236 eV

CRYSTAL
PRIMVEC
        5.17600016     0.00000000     0.00000000
        0.00000000     5.50899976     0.00000000
        0.00000000     0.00000000     9.26300011
PRIMCOORD
23 1
Ti      1.87948699     3.23770602     3.45079702    -0.20635656     1.40415246     2.62515489
Ti      3.30140102     2.26092001     5.90700101     0.82276746     0.18056350    -2.09454842
Ti      4.26887801     2.08129498     1.53895100     0.38342079    -0.05247469    -1.63996256
Ti      0.88688303     3.35108399     7.83752100    -0.83638017     0.82470376     1.05331374
Ti      1.87494099     0.33106699     1.25190002     2.02219216    -1.68048445    -0.01594239
Ti      3.42792799     5.16084299     7.89318098    -1.15326284     0.28873525     1.50958316
Ti      0.71914998     0.60158902     5.86228098     0.15924519    -0.65801599    -2.80234073
Ti      4.53645903     4.85607700     3.37032398     0.22505440     0.35543946     2.76836899
O       1.71624798     1.99114201     4.83543602    -0.82692570    -0.43746437     0.10649128
O       3.57907901     3.51347098     4.58464400    -0.07342482     0.37866116    -0.67615822
O       4.84858602     3.06442000     9.19614899     0.40479669    -0.46617203     0.59946424
O       3.20590702     1.02132802     0.18424401     1.10730589     0.44265491    -1.18850008
O       1.75213202     4.69993701     8.96729300     0.14616573    -0.11587709     0.97171486
O       4.34544699     0.62082202     4.68834501    -0.73961615     1.50803381     0.28666885
O       0.97987799     4.67834901     4.45548797     1.00689734    -0.17836983     0.05791798
O       0.06114902     3.16241198     2.67988801     1.19962807    -0.14781946    -0.52951709
O       5.09993601     2.10101403     6.66510700    -0.30900301     0.01278841     0.79577704
O       2.64433502     1.88742401     2.51744101     0.76122062    -0.69191420    -2.47513843
O       2.81536601     3.53280097     7.13440700    -1.44712178    -1.00000549     0.61021762
O       0.22614099     0.51719303     1.97101999    -1.93247811     0.80899148    -0.14112431
O       5.08265398     4.81478499     7.08378802     0.68392681     0.02230664     0.26941726
O       2.52039298     0.58999501     6.62873099    -0.02525236    -0.07832174     1.05595966
O       2.90425302     4.76460501     2.43671502    -1.37279990    -0.72011073    -1.14681759
