# total energy = -19955.65054204 eV

CRYSTAL
PRIMVEC
        5.01951482     0.00000000     0.00000000
        1.05790373     5.23648860     0.00000000
        0.00000000     0.00000000     9.02953306
PRIMCOORD
24 1
Ti      2.44624539     3.10313830     3.34989248     1.45684878    -1.13740092     0.64036510
Ti      3.63117292     2.13335043     5.67964094    -1.45684878     1.13740092    -0.64036510
Ti      4.75999843     2.13335231     1.16483815    -2.41886081    -0.46533925     1.25237299
Ti      1.31741990     3.10313662     7.86469537     2.41886081     0.46533925    -1.25237299
Ti      1.91729365     0.48489419     1.16487436     1.45634870    -1.13160206    -0.64175299
Ti      4.16012468     4.75159469     7.86465917    -1.45634870     1.13160206     0.64175299
Ti      0.78846807     0.48489216     5.67960474     2.41879345     0.47028220     1.25332070
Ti      5.28895026     4.75159671     3.34992869    -2.41879345    -0.47028220    -1.25332070
O       1.96121393     1.84385668     4.60770175    -0.45790542     0.06610592    -0.63328891
O       4.11620438     3.39263205     4.42183168     0.45790542    -0.06610592     0.63328891
O       1.29358874     1.84387777     0.09296412     0.79511266    -0.81332765     0.14674680
O       4.78382963     3.39261100     8.93656905    -0.79511266     0.81332765    -0.14674680
O       3.58725262     0.77438779     0.09293480     0.45723590    -0.06647024    -0.63339716
O       2.49016569     4.46210094     8.93659836    -0.45723590     0.06647024     0.63339716
O       4.25487787     0.77436675     4.60773106    -0.79567651     0.81381410     0.14653622
O       1.82254040     4.46212203     4.42180237     0.79567651    -0.81381410    -0.14653622
O       0.82584755     3.18512914     2.43910224    -0.42259670    -0.45556468    -0.82341023
O       5.25157076     2.05135958     6.59043118     0.42259670     0.45556468     0.82341023
O       3.10655468     2.05131067     2.07569320     0.81548249    -0.88192239    -1.03562762
O       2.97086363     3.18517805     6.95384007    -0.81548249     0.88192239     1.03562762
O       0.29689579     0.56688489     2.07566435    -0.42234345    -0.45532583     0.82128984
O       5.78052253     4.66960389     6.95386892     0.42234345     0.45532583    -0.82128984
O       2.44191186     0.56693375     6.59045999    -0.81584476     0.88208154    -1.03464289
O       3.63550645     4.66955498     2.43907339     0.81584476    -0.88208154     1.03464289
