# total energy = -19918.33123122 eV

CRYSTAL
PRIMVEC
        7.80503465     0.00000000     0.00000000
        0.00002746     4.47295546     0.00000000
        0.00000000     0.00000000    11.80836507
PRIMCOORD
24 1
Ti      2.82896604     2.65066940     4.38081938     0.38716534    -0.21575137     2.31811287
Ti      4.97609627     1.82228642     7.42754618    -0.38716534     0.21575137    -2.31811287
Ti      6.73134961     1.82228801     1.52331626     0.38638604     0.21558862    -2.31837358
Ti      1.07371270     2.65066794    10.28504943    -0.38638604    -0.21558862     2.31837358
Ti      2.82895243     0.41419174     1.52336359     0.38716534    -0.21575137    -2.31811287
Ti      4.97610987     4.05876421    10.28500210    -0.38716534     0.21575137     2.31811287
Ti      1.07369909     0.41418997     7.42749886    -0.38638604    -0.21558862    -2.31837358
Ti      6.73136322     4.05876592     4.38086671     0.38638604     0.21558862     2.31837358
O       2.47035250     1.57500373     6.02571850     1.16431524     1.13324396    -1.72324988
O       5.33470981     2.89795204     5.78264706    -1.16431524    -1.13324396     1.72324988
O       1.43222994     1.57502175     0.12157372    -1.16468908     1.13373530    -1.72468790
O       6.37283243     2.89793408    11.68679148     1.16468908    -1.13373530     1.72468790
O       5.33469620     0.66147431     0.12153542    -1.16431524    -1.13324396    -1.72324988
O       2.47036611     3.81148152    11.68682978     1.16431524     1.13324396     1.72324988
O       6.37281882     0.66145629     6.02575681     1.16468908    -1.13373530    -1.72468790
O       1.43224336     3.81149954     5.78260869    -1.16468908     1.13373530     1.72468790
O       0.28359165     2.72070510     3.18973411    -2.11542862     0.71967672     0.42038169
O       7.52147065     1.75225073     8.61863146     2.11542862    -0.71967672    -0.42038169
O       4.18611861     1.75220890     2.71448618    -2.11475422    -0.71972840    -0.42101187
O       3.61894369     2.72074693     9.09387914     2.11475422     0.71972840     0.42101187
O       0.28357804     0.48422731     2.71444849    -2.11542862     0.71967672    -0.42038169
O       7.52148426     3.98872852     9.09391683     2.11542862    -0.71967672     0.42038169
O       3.61893008     0.48426914     8.61866909     2.11475422     0.71972840    -0.42101187
O       4.18613222     3.98868669     3.18969642    -2.11475422    -0.71972840     0.42101187
