# total energy = -19921.74369839 eV

CRYSTAL
PRIMVEC
        7.17229897     0.00000000     0.00000000
        0.00003030     5.64214856     0.00000000
        0.00000000     0.00000000    11.41940485
PRIMCOORD
24 1
Ti      2.59963139     3.34353205     4.23651775     0.48766723    -0.71189836     1.08885411
Ti      4.57269795     2.29861669     7.18288716    -0.48766723     0.71189836    -1.08885411
Ti      6.18565700     2.29861866     1.47313908     0.48751425     0.71196495    -1.08919375
Ti      0.98667233     3.34353035     9.94626597    -0.48751425    -0.71196495     1.08919375
Ti      2.59961636     0.52245790     1.47318486     0.48766723    -0.71189836    -1.08885411
Ti      4.57271297     5.11969104     9.94622018    -0.48766723     0.71189836     1.08885411
Ti      0.98665731     0.52245575     7.18284138    -0.48751425    -0.71196495    -1.08919375
Ti      6.18567202     5.11969319     4.23656354     0.48751425     0.71196495     1.08919375
O       2.27008862     1.98669646     5.82723489     0.83350722     1.38541297    -1.14878063
O       4.90224078     3.65545229     5.59217003    -0.83350722    -1.38541297     1.14878063
O       1.31612421     1.98671922     0.11756919    -0.83319663     1.38570942    -1.14962524
O       5.85620525     3.65542959    11.30183540     0.83319663    -1.38570942     1.14962524
O       4.90222576     0.83437795     0.11753215    -0.83350722    -1.38541297    -1.14878063
O       2.27010364     4.80777080    11.30187245     0.83350722     1.38541297     1.14878063
O       5.85619023     0.83435525     5.82727194     0.83319663    -1.38570942    -1.14962524
O       1.31613910     4.80779356     5.59213298    -0.83319663     1.38570942     1.14962524
O       0.26060465     3.43187458     3.08466614    -1.37957682     0.28654133     0.06240430
O       6.91172474     2.21027417     8.33473878     1.37957682    -0.28654133    -0.06240430
O       3.84676187     2.21022154     2.62507263    -1.37955368    -0.28637369    -0.06247963
O       3.32556753     3.43192727     8.79433209     1.37955368     0.28637369     0.06247963
O       0.26058963     0.61080030     2.62503616    -1.37957682     0.28654133    -0.06240430
O       6.91173977     5.03134851     8.79436857     1.37957682    -0.28654133     0.06240430
O       3.32555251     0.61085293     8.33477519     1.37955368     0.28637369    -0.06247963
O       3.84677689     5.03129582     3.08462967    -1.37955368    -0.28637369     0.06247963
