# total energy = -19920.16148632 eV

CRYSTAL
PRIMVEC
        7.73774987     0.00000000     0.00000000
        0.00002723     4.43439550     0.00000000
        0.00000000     0.00000000    11.70656882
PRIMCOORD
24 1
Ti      2.80457840     2.62781880     4.34305370     0.37551207    -0.16673019     2.25658506
Ti      4.93319888     1.80657706     7.36351561    -0.37551207     0.16673019    -2.25658506
Ti      6.67332073     1.80657863     1.51018422     0.37526344     0.16683972    -2.25697998
Ti      1.06445655     2.62781736    10.19638521    -0.37526344    -0.16683972     2.25697998
Ti      2.80456491     0.41062112     1.51023114     0.37551207    -0.16673019    -2.25658506
Ti      4.93321238     4.02377487    10.19633829    -0.37551207     0.16673019     2.25658506
Ti      1.06444306     0.41061937     7.36346869    -0.37526344    -0.16683972    -2.25697998
Ti      6.67333422     4.02377656     4.34310062     0.37526344     0.16683972     2.25697998
O       2.44905635     1.56142611     5.97377266     1.22246770     1.07802385    -1.63062585
O       5.28872093     2.87296969     5.73279665    -1.22246770    -1.07802385     1.63062585
O       1.41988313     1.56144398     0.12052567    -1.22253018     1.07817040    -1.63130385
O       6.31789422     2.87295189    11.58604327     1.22253018    -1.07817040     1.63130385
O       5.28870744     0.65577194     0.12048770    -1.22246770    -1.07802385    -1.63062585
O       2.44906985     3.77862392    11.58608125     1.22246770     1.07802385     1.63062585
O       6.31788073     0.65575408     5.97381063     1.22253018    -1.07817040    -1.63130385
O       1.41989644     3.77864179     5.73275862    -1.22253018     1.07817040     1.63130385
O       0.28114690     2.69725075     3.16223640    -2.06203167     0.70711277     0.45735186
O       7.45663038     1.73714512     8.54433291     2.06203167    -0.70711277    -0.45735186
O       4.15003138     1.73710365     2.69108544    -2.06152156    -0.70703898    -0.45767710
O       3.58774590     2.69729221     9.01548363     2.06152156     0.70703898     0.45767710
O       0.28113341     0.48005294     2.69104807    -2.06203167     0.70711277    -0.45735186
O       7.45664388     3.95434293     9.01552099     2.06203167    -0.70711277     0.45735186
O       3.58773241     0.48009440     8.54437021     2.06152156     0.70703898    -0.45767710
O       4.15004488     3.95430146     3.16219903    -2.06152156    -0.70703898     0.45767710
