# total energy = -19072.19648330 eV

CRYSTAL
PRIMVEC
        5.93400000     0.00000000     0.00000000
        0.00000000     9.29699974     0.00000000
        0.00000000     0.00000000     4.64899994
PRIMCOORD
22 1
Ti      4.48232599     6.93174799     2.44867401    -1.61261373     0.37595353    -1.27886899
Ti      4.30114898     2.46535701     2.09759099     1.43468381    -0.09913123    -0.11813246
Ti      1.39812101     7.03884701     2.68095102     1.41581319     0.94533559    -0.87374500
Ti      1.55339299     2.29538702     2.24309002     0.05813189     1.20522537    -0.58256823
Ti      3.09688799     4.61191002     4.33833501    -0.71703954    -0.20844404     0.86454610
Ti      3.04299202     0.19234900     0.30601902     0.21690220    -1.34314170    -0.52477366
Ti      5.88122399     4.63362798     4.55937901    -0.02392027    -1.01647418     0.45736188
Ti      5.91555098     8.82353200     0.10576099    -0.13609780     0.23305465     0.13426383
O       4.25674101     5.55203198     0.83206402     0.17725552    -0.30956402     0.50985175
O       4.59918701     0.71898599     1.25710300     0.55785632     0.74741945    -1.41992773
O       1.33903900     0.85194902     0.75982201    -0.42898127     0.59134469     0.79994917
O       4.30969498     8.27194700     3.78639499     0.56469700     2.23422366     1.43206463
O       4.52104102     4.20854402     3.21972601     0.31092593    -1.83499701    -0.41782962
O       1.63660400     8.25746702     3.96463602    -0.25717700     1.84720898     0.33309014
O       1.45829100     3.88402401     3.26686602    -0.56279052    -0.20334502     0.82676552
O       2.86828701     6.17731501     3.23297899     1.11243293    -1.78803682     0.25117219
O       3.10327600     1.62848102     3.24680602    -0.90312372    -0.75535002     0.62005312
O       0.00903798     6.45683797     3.70708201    -0.23797985    -1.56867047     0.40049703
O       3.11941803     8.08012702     1.50617699    -0.93036534    -1.26543368     0.46232232
O       2.95089200     2.85394298     0.97087102    -0.71165668     1.81723633    -0.96607026
O       0.06707300     7.96590703     1.69915799    -0.23165905    -0.66182148    -1.02044243
O       5.79875801     3.08186300     1.03082199     0.90470649     1.05740719     0.11042069
