# total energy = -19960.05220699 eV

CRYSTAL
PRIMVEC
        7.60600008     0.00000000     0.00000000
        0.00000000     7.60600008     0.00000000
       -1.89786986    -1.89786986     4.85670466
PRIMCOORD
24 1
Ti      3.73007100     6.53883801     1.28212102     0.83538464    -0.75443522     0.12116765
Ti      3.61109301     2.86272599     1.13303400     2.40848435     1.51792536     0.87885147
Ti      0.03736902     6.55827898     1.18798398    -1.03499025     0.04184163     0.60270820
Ti      0.02242701     2.85202201     1.17257402    -2.15844499    -0.03239771    -1.03524042
Ti      5.66623425     2.85035124     3.58130880    -0.51850814    -0.08879411    -0.37463815
Ti      5.87147321    -0.98088777     3.73640181    -0.61846984    -0.00217207    -0.93573843
Ti      1.75830921     2.96119323     3.55302380     1.93143912     1.15217063     1.71858538
Ti      1.92980222    -0.81604879     3.78420880     0.36091797    -1.53746652    -1.97143136
O       3.89298801     4.76623800     0.74285400    -0.30252485    -1.23415851     0.34091426
O       3.71262398     0.90123500     0.74527900    -0.03887124     1.78086112     1.34708012
O       0.07750700     4.70196900     0.67680902    -0.49953725    -0.21693897    -0.28751706
O       0.07750298     0.93262500     0.92736101     0.37082340     0.42420441    -1.19625067
O       5.95870321     4.72731024     4.16153483    -0.41213231     0.17098177    -1.35046729
O       5.94689224     0.94117820     3.93307684    -0.55235544    -0.33529692     0.36136483
O       1.76419922     4.71845425     4.22978679     0.06653555     0.55340985    -1.24688985
O       1.60404520     1.09808222     3.99584684     0.77693238    -2.26618659     0.56291368
O       3.73987724     2.89328423     3.32647381     0.69440020    -0.36933294    -1.61187016
O       3.87867620    -1.04648775     3.44882980    -0.79583386     0.69836639    -1.03017868
O       0.00035624     2.89536120     3.05924681    -0.48219952     0.09900139     0.58424253
O       0.10520324    -1.04625079     3.17925379    -0.49069805     0.33847326     0.90083132
O       5.78665002     6.42802702     1.56203498    -0.67036500     0.82268313     1.25970321
O       5.74163000     2.95492899     1.50639798    -1.01735170    -0.53298063     0.58288602
O       1.88449999     6.39084603     1.62504899     1.93086859     0.71962916     0.98309560
O       1.89903601     3.21612601     1.53735802     0.21649571    -0.94938765     0.79587808
