# total energy = -4900.45420890 eV

CRYSTAL
PRIMVEC
        5.96143482     0.00000000     0.00000000
       -0.00000737     1.98714494     0.00000000
       -2.98075535    -0.99370177     6.76277074
PRIMCOORD
6 1
Ti     -0.00025513     1.49040609     1.69069227    -0.05129224    -0.02683590    95.18166935
Ti      2.98092706    -0.49696298     5.07207748     0.05129224     0.02683590   -95.18166935
O       0.00006294     0.49676470     1.10159991     0.04951407     0.03462377   -91.85754901
O       2.98060883     0.49667836     5.66116989    -0.04951407    -0.03462377    91.85754901
O      -0.00002735    -0.49684815     4.48298512    -0.00113848     0.00045097    -0.60657977
O       2.98069900     1.49029115     2.27978469     0.00113848    -0.00045097     0.60657977
