# total energy = -19912.25709263 eV

CRYSTAL
PRIMVEC
        7.97065909     0.00000000     0.00000000
        0.00002610     3.63565345     0.00000000
        0.00000000     0.00000000    12.13072016
PRIMCOORD
24 1
Ti      2.88899589     2.15448488     4.50041066    -0.02543645    -0.04286956     2.39109777
Ti      5.08168895     1.48116863     7.63030967     0.02543645     0.04286956    -2.39109777
Ti      6.87418901     1.48116986     1.56490099    -0.02495976     0.04365143    -2.39230799
Ti      1.09649583     2.15448376    10.56581946     0.02495976    -0.04365143     2.39230799
Ti      2.88898302     0.33665822     1.56494965    -0.02543645    -0.04286956    -2.39109777
Ti      5.08170183     3.29899535    10.56577080     0.02543645     0.04286956     2.39109777
Ti      1.09648295     0.33665686     7.63026101     0.02495976    -0.04365143    -2.39230799
Ti      6.87420189     3.29899671     4.50045932    -0.02495976     0.04365143     2.39230799
O       2.52277303     1.28017537     6.19021369     2.61998929     0.53593380    -1.33588373
O       5.44791182     2.35547808     5.94050664    -2.61998929    -0.53593380     1.33588373
O       1.46262132     1.28019004     0.12489255    -2.61819132     0.53521517    -1.33621746
O       6.50806358     2.35546347    12.00582743     2.61819132    -0.53521517     1.33621746
O       5.44789900     0.53765135     0.12485320    -2.61998929    -0.53593380    -1.33588373
O       2.52278584     3.09800216    12.00586678     2.61998929     0.53593380     1.33588373
O       6.50805077     0.53763669     6.19025304     2.61819132    -0.53521517    -1.33621746
O       1.46263402     3.09801682     5.94046729    -2.61819132     0.53521517     1.33621746
O       0.28960824     2.21141051     3.27681018    -1.39945814     0.35657872     0.23366400
O       7.68107661     1.42424294     8.85391016     1.39945814    -0.35657872    -0.23366400
O       4.27494792     1.42420907     2.78858855    -1.39842867    -0.35645119    -0.23343774
O       3.69573692     2.21144444     9.34213161     1.39842867     0.35645119     0.23343774
O       0.28959542     0.39358378     2.78854984    -1.39945814     0.35657872    -0.23366400
O       7.68108943     3.24206973     9.34217031     1.39945814    -0.35657872     0.23366400
O       3.69572411     0.39361765     8.85394881     1.39842867     0.35645119    -0.23343774
O       4.27496074     3.24203586     3.27677147    -1.39842867    -0.35645119     0.23343774
