# total energy = -19950.14921150 eV

CRYSTAL
PRIMVEC
        4.78906775     0.00000000     0.00000000
        0.25471788     5.09064768     0.00000000
        0.00000000     0.00000000     8.57405841
PRIMCOORD
24 1
Ti      1.88675223     3.01671298     3.18091451     0.56727967     0.60097450    -0.60785349
Ti      3.15703320     2.07393452     5.39314399    -0.56727967    -0.60097450     0.60785349
Ti      4.23403386     2.07393625     1.10608047    -0.74783777    -0.89588169     1.22841878
Ti      0.80975162     3.01671143     7.46797813     0.74783777     0.89588169    -1.22841878
Ti      1.75939339     0.47138933     1.10611484     0.56703104     0.59778094     0.60195975
Ti      3.28439204     4.61925831     7.46794377    -0.56703104    -0.59778094    -0.60195975
Ti      0.68239277     0.47138744     5.39310958     0.74763080     0.89376233     1.23481003
Ti      4.36139271     4.61926020     3.18094893    -0.74763080    -0.89376233    -1.23481003
O       1.60546060     1.79250351     4.37527638    -1.71739599    -1.42844040    -0.30018412
O       3.43832483     3.29814398     4.19878213     1.71739599     1.42844040     0.30018412
O       0.96848319     1.79252406     0.08827473     1.69458953    -1.53277555    -0.14684321
O       4.07530229     3.29812349     8.48578353    -1.69458953     1.53277555     0.14684321
O       3.31096599     0.75282019     0.08824693     1.71815884     1.42895616    -0.30045691
O       1.73281944     4.33782731     8.48581133    -1.71815884    -1.42895616     0.30045691
O       3.94794345     0.75279969     4.37530423    -1.69422314     1.53278377    -0.14635059
O       1.09584193     4.33784790     4.19875428     1.69422314    -1.53278377     0.14635059
O       0.32893176     3.09642038     2.31606712    -0.79334323    -0.04809662    -0.85273933
O       4.71485372     1.99422711     6.25799144     0.79334323     0.04809662     0.85273933
O       2.66832285     1.99417968     1.97098940    -0.36149904    -0.79603003    -0.07110646
O       2.37546263     3.09646781     6.60306896     0.36149904     0.79603003     0.07110646
O       0.20157291     0.55109659     1.97096204    -0.79265006    -0.04799017     0.85488646
O       4.84221257     4.53955090     6.60309633     0.79265006     0.04799017    -0.85488646
O       2.24810378     0.55114402     6.25801875     0.36230174     0.79560940    -0.07300959
O       2.79568169     4.53950347     2.31603971    -0.36230174    -0.79560940     0.07300959
