# total energy = -19517.55061877 eV

CRYSTAL
PRIMVEC
        7.60600008     0.00000000     0.00000000
        0.00000000     7.60600008     0.00000000
       -1.89786986    -1.89786986     4.85670466
PRIMCOORD
23 1
Ti      3.76587598     6.75871301     1.34736899     0.48271220     0.06871713    -0.74841704
Ti      3.78573198     2.97264198     1.19658200    -0.58855016     0.09843909    -0.41903135
Ti      0.01293701     6.56793599     1.25640702    -1.08799896     1.47924413    -1.00431955
Ti     -0.07499299     2.86244299     0.99048498     0.50160544    -3.02049892     1.70187552
Ti      5.68872121     2.68025123     3.60939779    -0.39684632     0.47300988    -0.96038761
Ti      5.67661623    -1.19581977     3.54118679     0.70766967     0.04689694     2.12610564
Ti      2.12613523     3.01453224     3.69825581    -0.99712406    -0.73657376    -0.49521342
Ti      1.89273621    -0.91076480     3.68190180    -0.80088248     0.24315497     0.79041397
O       4.09702600     4.94717799     0.83205402    -0.59526717    -2.02073434     0.67547559
O       3.61737498     1.01270100     0.81026202     0.04751709     0.41714339    -0.02065934
O      -0.22554598     4.57932498     0.67951799     0.04243402     2.43157467     1.21560543
O      -0.07207003     0.85461898     0.56567402     0.84998877     0.32198528     2.59569390
O       5.49172022     4.65200424     4.17098583     1.05711820    -1.41866017    -1.71843549
O       5.85365825     0.84606520     3.96894082     0.29638043     0.78028819    -0.51026209
O       2.04014721     4.78948423     4.16159780    -0.72390053     1.59691277    -0.17698864
O       1.70672723     1.10120622     3.99183684     0.33872703    -0.29922484     0.91597410
O       3.84321820     2.84260525     3.23571679     0.68530800    -0.40197773    -0.60183377
O       3.79065725    -0.91885279     3.38758579    -0.88765004     0.37829118    -1.45043414
O       0.04127323    -1.08902477     3.20970683    -0.46010962    -0.41724546     0.51330448
O       5.71523199     6.80110101     1.74356998    -0.57103940     0.01296094    -1.57733972
O       5.66235501     2.57411701     1.64477598     1.39104754     0.88694093    -0.46617357
O       1.81951200     6.57969801     1.64359797     1.87689135     0.03509840    -0.10848054
O       1.95356900     3.28100098     1.72333202    -1.16803126    -0.95574265    -0.27647263
