# total energy = -19518.25311851 eV

CRYSTAL
PRIMVEC
        5.93400000     0.00000000     0.00000000
        0.00000000     9.29699974     0.00000000
        0.00000000     0.00000000     4.64899994
PRIMCOORD
23 1
Ti      4.51489802     7.01144801     2.26445000     1.03858208     0.16839909     0.50139821
Ti      4.40588703     2.30789100     2.30784899     0.46890228    -0.54919941     0.59794754
Ti      1.50251800     7.06428001     2.24268801    -0.92805597     0.14821387     0.30579247
Ti      1.41777698     2.32962198     2.33038702    -0.19688333    -0.65849242     0.31300956
Ti      2.94911302     4.52041601     0.13318100     0.38856582    -0.22565372    -0.07865676
Ti      2.94898501     9.29229800     4.60118201     0.20422717     0.12554341    -0.25450691
Ti      5.93107799     4.64819501     0.02605198    -0.32457798     0.08460398    -0.66773425
Ti      5.92067500     0.05824299     4.64114600    -0.28527994     0.03305334    -0.13359071
O       4.40505299     5.49596501     1.02565801    -0.19449323     0.38901782    -0.48904457
O       4.49814897     1.00030698     0.92088600    -0.27655644    -0.91309035    -0.40504634
O       1.51533298     5.52239001     0.95005102     0.45976175     0.47966698    -0.08699794
O       1.44930398     0.93969301     0.82586201     0.56006284    -0.24919013     0.64243510
O       4.45769501     8.40260701     3.69056702    -0.08610731    -0.22675621     0.69546541
O       4.52016301     3.66388897     3.85794499    -0.82591320     0.52463637    -0.97659507
O       1.54382398     8.35282201     3.64974301    -0.04134078    -0.03503515     0.90911953
O       1.48302602     3.70403501     3.71927198     0.31159057     0.78832829     0.13292145
O       2.92880399     1.36471601     3.21638102     0.25637559     0.42167624    -0.18553087
O       0.01043400     6.09006501     3.24128897     0.28187709    -0.31117585     0.30012730
O       5.93279401     1.38076299     3.31272399     0.05819566     0.71261981    -1.34099303
O       3.08593301     8.00564803     1.50428000    -1.00870996    -0.94193916    -0.45614138
O       2.95133800     3.19055098     1.35886997    -0.16766478    -0.37012612     0.89576959
O       0.02059701     7.87672399     1.43268898     0.15069216     0.26404571    -0.80732206
O       5.92621702     3.18828902     1.37640500     0.15675019     0.34085359     0.58817375
