# total energy = -4988.84993470 eV

CRYSTAL
PRIMVEC
        3.17448956     0.00000000     0.00000000
        0.00000000     4.97394922     0.00000000
        0.00000000    -0.00006455     4.97394922
PRIMCOORD
6 1
Ti      1.58724472     2.48694228     2.48697455     0.00000000     0.00000000     0.00000000
Ti      0.00000000     0.00000000     0.00000000     0.00000000     0.00000000     0.00000000
O       1.58724472     0.96933685     0.96934943    -0.00000000    -0.57045293    -0.57045293
O       1.58724472     4.00454771     4.00459968     0.00000000     0.57045293     0.57045293
O       0.00000000     1.51757926     3.45632499     0.00000000     0.56995105    -0.56995105
O       0.00000000     3.45630530     1.51762411     0.00000000    -0.56995105     0.56995105
