# total energy = -19934.60385194 eV

CRYSTAL
PRIMVEC
        7.11665998     0.00000000     0.00000000
        0.00002685     4.54456681     0.00000000
        0.00000000     0.00000000    10.86912535
PRIMCOORD
24 1
Ti      2.57946266     2.69310607     4.03236800     0.42159345     0.18984056     1.12637963
Ti      4.53722371     1.85146069     6.83675746    -0.42159345    -0.18984056    -1.12637963
Ti      6.13767021     1.85146222     1.40215131     0.42171610    -0.18968192    -1.12623128
Ti      0.97901622     2.69310471     9.46697421    -0.42171610     0.18968192     1.12623128
Ti      2.57944947     0.42082272     1.40219491     0.42159345     0.18984056    -1.12637963
Ti      4.53723691     4.12374415     9.46693067    -0.42159345    -0.18984056     1.12637963
Ti      0.97900297     0.42082107     6.83671386    -0.42171610     0.18968192    -1.12623128
Ti      6.13768341     4.12374580     4.03241154     0.42171610    -0.18968192     1.12623128
O       2.25247714     1.60021918     5.54643149     1.22607368     0.71036213    -0.81610136
O       4.86420929     2.94434751     5.32269397    -1.22607368    -0.71036213     0.81610136
O       1.30591312     1.60023754     0.11190374    -1.22590656     0.71030891    -0.81695625
O       5.81077337     2.94432922    10.75722137     1.22590656    -0.71030891     0.81695625
O       4.86419609     0.67206405     0.11186847    -1.22607368    -0.71036213    -0.81610136
O       2.25249034     3.87250265    10.75725665     1.22607368     0.71036213     0.81610136
O       5.81076012     0.67204575     5.54646671     1.22590656    -0.71030891    -0.81695625
O       1.30592620     3.87252100     5.32265870    -1.22590656     0.71030891     0.81695625
O       0.25858095     2.76426316     2.93602192    -1.62346893     0.61153968     0.80760206
O       6.85810548     1.78030354     7.93310349     1.62346893    -0.61153968    -0.80760206
O       3.81691914     1.78026129     2.49857533    -1.62397132    -0.61124966    -0.80785840
O       3.29976723     2.76430547     8.37054990     1.62397132     0.61124966     0.80785840
O       0.25856770     0.49197969     2.49854064    -1.62346893     0.61153968    -0.80760206
O       6.85811867     4.05258700     8.37058459     1.62346893    -0.61153968     0.80760206
O       3.29975404     0.49202200     7.93313812     1.62397132     0.61124966    -0.80785840
O       3.81693233     4.05254470     2.93598722    -1.62397132    -0.61124966     0.80785840
