# total energy = -19960.46315282 eV

CRYSTAL
PRIMVEC
        7.60600008     0.00000000     0.00000000
        0.00000000     7.60600008     0.00000000
       -1.89786986    -1.89786986     4.85670466
PRIMCOORD
24 1
Ti      3.83917301     6.64364199     1.13202402    -0.11647539    -0.71320911    -0.50632882
Ti      3.74721301     2.74356401     1.20936999     0.99222199     1.34756143     0.41058784
Ti      0.01481702     6.74543902     1.24912999     0.02636564    -1.17812541    -0.81333382
Ti     -0.09232301     2.74254301     1.22593001    -0.41917482     1.64553749     2.14015030
Ti      5.63993520     2.81728120     3.74741981     1.93417503     0.93839695     0.23126953
Ti      5.68911625    -0.86071077     3.56438582     0.80772984    -1.23642134     0.81043027
Ti      1.93641021     2.78729723     3.63258581    -1.17107056     0.57481223     0.07970551
Ti      1.99475322    -0.89285278     3.54293482    -0.95731282    -0.38605771     0.92286851
O       3.83936198     4.64222902     0.73171302    -0.36731128     0.36466098     1.09742720
O       3.90493900     0.88236697     0.67343197    -0.17522820     1.31793434     0.73514474
O      -0.14292802     4.63867501     0.84012598     0.42313252     1.75569310     0.17746249
O      -0.14420900     0.90857802     0.79595799     0.06598327     0.27117641    -0.25284778
O       5.82385425     4.75746324     4.15883782    -0.10367257     0.06531659    -0.43460556
O       5.71434821     0.91441824     4.19124882    -0.17838783    -0.52826702    -1.90105536
O       1.76516121     4.64805325     4.08652781     0.39117601     1.27002542    -0.47001506
O       2.09876322     0.94153725     3.95460684    -0.53969095    -1.06460140     1.07987247
O       3.88741223     2.81371122     3.23989782    -2.30312256    -0.03899388    -0.37982947
O       3.79932623    -0.92599277     3.14188081     1.09159002    -0.72866376     0.59034659
O      -0.02407476     2.70453623     3.13917682    -0.08322947    -0.34907752     1.75888101
O      -0.05583878    -0.73173275     3.21281183     0.92480507    -0.68005370     0.21370452
O       5.72559000     6.70518202     1.60494099    -0.84523659    -0.29897956    -0.02009086
O       5.65610299     2.90742602     1.78152601    -0.60155223    -0.60341962    -1.61049205
O       1.97698102    -0.62744001     1.71690098    -1.00008674    -1.01925355    -1.81729804
O       1.81980400     2.98791102     1.76720002     2.20437288    -0.72599136    -2.04195443
