# total energy = -19944.83591389 eV

CRYSTAL
PRIMVEC
        5.81312587     0.00000000     0.00000000
        0.92287897     6.11770546     0.00000000
        0.00000000     0.00000000    10.43376396
PRIMCOORD
24 1
Ti      2.65387574     3.62534653     3.87085205     0.09018199    -1.51535529     0.80036723
Ti      4.08212904     2.49235876     6.56291215    -0.09018199     1.51535529    -0.80036723
Ti      5.38942761     2.49236082     1.34598833    -0.19698077    -0.07979524    -0.21576474
Ti      1.34657719     3.62534470     9.08777599     0.19698077     0.07979524     0.21576474
Ti      2.19243638     0.56649391     1.34603017     0.09018199    -1.51535529    -0.80036723
Ti      4.54356841     5.55121155     9.08773415    -0.09018199     1.51535529     0.80036723
Ti      0.88513780     0.56649167     6.56287031     0.19698077     0.07979524    -0.21576474
Ti      5.85086699     5.55121380     3.87089389    -0.19698077    -0.07979524     0.21576474
O       2.16485239     2.15414802     5.32426994     1.47128888     1.61210413    -0.41346697
O       4.57115238     3.96355727     5.10949420    -1.47128888    -1.61210413     0.41346697
O       1.39167097     2.15417275     0.10742144    -0.81801349     0.43086923     0.56922137
O       5.34433387     3.96353259    10.32634246     0.81801349    -0.43086923    -0.56922137
O       4.10971301     0.90470447     0.10738760    -1.47128888    -1.61210413    -0.41346697
O       2.62629177     5.21300081    10.32637630     1.47128888     1.61210413     0.41346697
O       4.88289449     0.90467980     5.32430384     0.81801349    -0.43086923     0.56922137
O       1.85311023     5.21302555     5.10946036    -0.81801349     0.43086923    -0.56922137
O       0.77255160     3.72113524     2.81842000     0.33048201     0.69551349     0.91295408
O       5.96345317     2.39656998     7.61534420    -0.33048201    -0.69551349    -0.91295408
O       3.47930179     2.39651308     2.39849529     0.65295066     0.96759184     0.21124217
O       3.25670298     3.72119214     8.03526873    -0.65295066    -0.96759184    -0.21124217
O       0.31111223     0.66228245     2.39846193     0.33048201     0.69551349    -0.91295408
O       6.42489254     5.45542278     8.03530204    -0.33048201    -0.69551349     0.91295408
O       2.79526361     0.66233935     7.61537745    -0.65295066    -0.96759184     0.21124217
O       3.94074116     5.45536588     2.81838669     0.65295066     0.96759184    -0.21124217
