# total energy = -4988.31099368 eV

CRYSTAL
PRIMVEC
        3.60277942     0.00000000     0.00000000
        0.88683000     3.49192670     0.00000000
       -2.24483751    -1.74598887     4.63486302
PRIMCOORD
6 1
Ti      0.66500551     2.61907875     1.15871568     0.00059187    -0.00059187     0.00000000
Ti      1.57976656    -0.87314078     3.47614704    -0.00059187     0.00059187     0.00000000
O       0.22174528     0.87297670     0.75498126     0.00017124     0.00097599     0.18514289
O       2.02302663     0.87296118     3.87988146    -0.00017124    -0.00097599    -0.18514289
O      -0.22171953    -0.87295668     3.07241262     0.00097599     0.00017124     0.18514289
O       2.46649143     2.61889451     1.56245010    -0.00097599    -0.00017124    -0.18514289
