# total energy = -19074.60057490 eV

CRYSTAL
PRIMVEC
        7.60600008     0.00000000     0.00000000
        0.00000000     7.60600008     0.00000000
       -1.89786986    -1.89786986     4.85670466
PRIMCOORD
22 1
Ti      3.65875400     6.87917799     1.29992899     2.32211608     0.26381765    -2.83334208
Ti      3.84247000     3.01545697     1.10286497     1.43976045    -0.51080331     0.61619415
Ti     -0.21477198     6.47780001     1.06366802    -0.24490127    -0.32110236     0.70342760
Ti      0.07244997     2.62014098     1.30588399    -1.50462581     0.30773108    -1.19951289
Ti      5.65832025     2.63776523     3.55346381    -0.68787165     0.99667977     0.51562105
Ti     -1.42070677    -1.05721079     3.78589783    -1.64668728    -0.08455462    -0.69875848
Ti      1.88811623     2.94937623     3.62018883     1.81989408     0.29684528     0.60140799
Ti      1.60244322    -0.75164675     3.66138279     0.09055969    -1.04160287    -0.28532571
O       3.99170698     4.89124999     0.65176899    -0.92387536     0.12992869    -0.20229576
O       4.15416302     1.05089601     0.79955597    -1.62506661     0.54631334     0.68641332
O      -0.29153899     4.64430302     0.79362199     1.24953757    -0.16789053    -0.43820022
O       7.27990598     0.74018700     0.80730202     1.37950534     1.59047498     0.71998886
O       5.70744324     4.71448822     4.02485782     1.03779764    -0.77904403    -0.58339355
O       5.55264323     0.73431323     4.25068781     0.80495331     0.81244088    -2.00606182
O       1.90399525     5.08797121     4.10196783    -0.60294371    -2.32308873    -0.45062842
O       2.26112020     1.00209825     3.96403080    -0.60705414     0.92231701    -0.18467470
O       3.86755120     3.13641520     3.05713582    -0.70753623    -0.72148781     0.64956323
O       0.08600422     2.59159023     3.32441780    -0.54819076     0.38838662    -0.39797606
O       5.52332602     6.58838800     1.88706502     1.04869578     0.06950157     1.56314594
O       5.77084201     2.91136400     1.60968798     0.27752369    -0.75334430     1.39297767
O       1.88874801     6.64163000     1.64102601    -1.35309419     0.16758534     1.11890312
O       1.98609800     2.81272298     1.42718898    -1.01849610     0.21089661     0.71252751
