# total energy = -4976.77994295 eV

CRYSTAL
PRIMVEC
        4.04969954     0.00000000     0.00000000
        0.00000000     2.11509080     0.00000000
        0.00000000    -0.00011156     5.64024132
PRIMCOORD
6 1
Ti      2.02484958     1.05748957     2.82012066     0.00000000     0.00000000     0.00000000
Ti      0.00000000     0.00000000     0.00000000     0.00000000     0.00000000     0.00000000
O       2.02484958     0.41217830     1.09919998     0.00000000    -1.20744269    -1.49131598
O       2.02484958     1.70280089     4.54104139     0.00000000     1.20744269     1.49131598
O       0.00000000     0.64526746     3.91932178     0.00000000     1.20703234    -1.48993709
O       0.00000000     1.46971173     1.72091954     0.00000000    -1.20703234     1.48993709
