# total energy = -4986.67802515 eV

CRYSTAL
PRIMVEC
        4.50482895     0.00000000     0.00000000
       -0.00000773     3.32965637     0.00000000
       -2.25244204    -1.66487174     5.11434597
PRIMCOORD
6 1
Ti     -0.00019454     2.49736488     1.27858619    -0.00403098    -0.00438373     7.04042097
Ti      2.25257350    -0.83258025     3.83575902     0.00403098     0.00438373    -7.04042097
O       0.00004699     0.83240621     0.83308502     0.00163959     0.00429014    -2.14172664
O       2.25233181     0.83237837     4.28126018    -0.00163959    -0.00429014     2.14172664
O      -0.00002016    -0.83240301     3.39025785    -0.00210573    -0.00017561    -1.47057719
O       2.25239890     2.49718747     1.72408742     0.00210573     0.00017561     1.47057719
