# total energy = -19517.48205435 eV

CRYSTAL
PRIMVEC
        5.17600016     0.00000000     0.00000000
        0.00000000     5.50899976     0.00000000
        0.00000000     0.00000000     9.26300011
PRIMCOORD
23 1
Ti      1.95565099     3.15659400     3.45418598    -0.71076939     0.69212632     1.72721992
Ti      3.34808700     2.30743602     5.90813699     1.59489779     0.65334507    -1.85548356
Ti      4.31497898     2.08728002     1.50706998     0.61658985     0.49054327    -1.59709943
Ti      0.73113298     3.49181799     7.80587102    -1.87383199    -0.22299417     1.38690164
Ti      1.98743200     0.12417102     1.41428499     1.58635581     0.68363113    -1.50953636
Ti      3.14816098     5.15978500     7.94505300     0.00377567     0.63875482     2.09438670
Ti      0.84475501     0.59661502     5.85747298    -1.99142555    -0.86188732    -2.13403441
Ti      4.66459898     4.91568702     3.29128998    -1.14679137     0.89931900     2.72725035
O       1.83100901     1.81038999     4.83788601    -0.76359453     0.03060925    -0.94077419
O       3.51344801     3.48751700     4.46051701     1.03408291     0.81976955     0.16352454
O       4.73342102     2.91181502     9.16541400     0.21514408    -0.09122123     0.38372906
O       3.51039101     0.70195500     0.23101000    -0.67478036    -0.13012872     0.57905944
O       1.48703898     4.78044302     9.10634798     0.83541755    -0.47655183    -0.22377168
O       4.35549999     0.73270501     4.75859001     0.07651966     0.08661150    -0.16301006
O       0.96382699     4.61895702     4.42731802     0.85221766     0.32300010     0.93691857
O       0.26879199     3.46546502     2.44021199     0.48938293    -1.87865898    -0.91235192
O       5.14720101     2.16727199     6.59229999    -0.05096623     0.20235078     0.84677077
O       2.65483300     1.83508298     2.38931900     0.25376103    -1.39312243    -1.69115504
O       2.41945803     3.71036899     6.96816602     0.49942515    -1.36926566    -0.44860393
O       0.29728400     0.63325001     1.96991401    -0.89689702     0.63399031     0.68958426
O       4.83736202     4.84379099     7.25528701     0.72800762     0.87399748    -1.15280030
O       2.48339502     0.98318699     6.94573298    -0.82546969    -0.53728954     0.91057761
O       2.98034500     4.40074797     2.26703699     0.14894843    -0.06692944     0.18269854
