# total energy = -4984.13798201 eV

CRYSTAL
PRIMVEC
        3.07065090     0.00000000     0.00000000
        0.00000000     3.55614129     0.00000000
        0.00000000    -0.00005611     4.27999528
PRIMCOORD
6 1
Ti      1.53532550     1.77804245     2.13999764     0.00000000     0.00000000     0.00000000
Ti      0.00000000     0.00000000     0.00000000     0.00000000     0.00000000     0.00000000
O       1.53532550     0.69302857     0.83410803     0.00000000    -1.32420064    -1.66910346
O       1.53532550     2.86305628     3.44588721     0.00000000     1.32420064     1.66910346
O       0.00000000     1.08499121     2.97410662     0.00000000     1.32584229    -1.67213582
O       0.00000000     2.47109369     1.30588866     0.00000000    -1.32584229     1.67213582
