# total energy = -39035.19121393 eV

CRYSTAL
PRIMVEC
        5.93200024     0.00000000     0.00000000
        0.00000000     9.29399984     0.00000000
        0.00000000     0.00000000     9.29399984
PRIMCOORD
46 1
Ti      4.46307997     6.93296901     7.01137800    -0.57709229    -0.18685062    -0.13280113
Ti      4.46474201     6.94220602     2.28840998     0.85589074    -0.73551344     1.21221671
Ti      4.45264799     2.35865799     6.96646302     0.31983430     0.76946256    -1.01066992
Ti      4.27268999     2.55286599     2.08833198    -0.01259995    -1.35315230     0.78329612
Ti      1.49322501     6.99286003     7.01030203     0.21130645    -0.19829486    -1.74422649
Ti      1.53693198     7.08857401     2.24867702    -0.70063976    -1.26284741     0.81685058
Ti      1.50768700     2.30830000     7.11913500    -0.48537458    -0.19637990    -1.76706201
Ti      1.30323799     2.16367798     2.51949200     0.98921277     0.80543770    -0.10531500
Ti      3.06268901     4.58804799     4.60900298    -1.57123386     0.46301394     0.31512738
Ti      2.89847700     4.80490699     9.11516597     0.82360538    -0.83210159     1.11904041
Ti      2.98116999     9.19521700     4.65258703     0.43910782     0.29812698     0.29384480
Ti      2.95226099     0.09656897     0.00424199     0.81840815    -0.06012321     0.35456888
Ti      0.00729503     4.59488199     4.66502602     1.53548266     0.80264600    -0.44632542
Ti      5.90457902     4.73097199     9.24564801    -0.65038573    -0.42893216     0.41222024
Ti      0.00509301     9.18917099     4.85837702    -0.72183028     0.21780851    -0.24364657
Ti      5.92498499     9.26357500     9.21708901    -0.66793583    -0.08781966     0.20458147
O       4.41595002     5.52285198     5.65909703     0.64058108    -0.30924520    -0.83628118
O       4.45208198     5.74833298     0.65930400     0.23250160    -0.82070698     1.31518352
O       4.38436502     0.93153500     5.54936900     0.72775616    -0.57774484    -0.73583380
O       4.45140198     0.86473098     1.03017798    -0.43821590     0.48250805    -0.70448201
O       1.61949300     5.54829498     5.63474402    -0.52576585    -0.27643972    -0.89090557
O       1.50659102     5.55105702     0.90677501     0.00105595    -0.46774375    -0.31136199
O       1.51819498     0.72063601     5.65623000    -0.32891004     0.96148058    -0.47269955
O       1.39897701     0.79355500     0.87953101     0.83576233     1.20136331     1.38306555
O       4.41301399     8.36315599     8.38924099    -0.20611847    -0.14648197     0.51225393
O       4.48458002     8.36725098     3.76878598     0.00280070     0.33650071    -0.02226268
O       4.46233299     3.93760702     8.22940798     0.18046220    -1.20814614     0.90365568
O       4.60042698     3.48660100     3.77329103    -0.32275790     1.57928450     0.10890066
O       1.53845501     8.49595398     8.29666397    -0.33117492    -0.56087145     0.31533281
O       1.47630398     8.20827502     3.79968702     0.03346729     1.49383129     0.11452135
O       1.55813500     3.66583402     8.30958299    -0.47570286     0.80551304     1.70267488
O       1.51612600     3.84197098     3.56123102    -0.34912534    -1.28201885     0.79332729
O       2.92383501     5.98958700     7.82489600    -0.24160640     1.41893065    -0.41659446
O       3.01307901     5.93292101     3.15233200     0.67833826     0.64050806    -0.25633831
O       3.05114897     1.47059300     7.90220700    -0.57912809    -0.66894910     0.92585253
O       2.99549397     1.62751702     3.17694203    -0.80734418    -1.23461848    -0.14648017
O       0.17558202     5.99340100     7.87374398    -0.83244072     0.37799678     0.15780383
O       0.05151101     6.05343801     3.32601300    -0.66735013     0.12901183    -0.86304509
O       5.76845299     1.39794199     7.93244000     1.58433930     0.09868155     0.09425411
O       2.97289800     7.87301499     6.15820499     0.93434978     0.29729060    -0.97075455
O       3.08718102     7.90726900     1.49035200    -1.30942990     0.40460643    -0.54729422
O       3.03408698     3.23644600     6.09687901    -1.28730041    -0.45633164    -0.47483099
O       5.79485898     7.97167998     6.19392102     0.98780226    -0.74417112    -0.07012532
O       0.00944798     7.87519102     1.37507402     0.52839275    -0.45854716     0.37257664
O       0.06199899     3.17092798     6.07683701     0.53311458    -0.08379074    -0.03460063
O       0.01213202     3.05674000     1.47223001     0.19589114     1.05381896    -1.00721255
