# total energy = -19906.32260429 eV

CRYSTAL
PRIMVEC
        6.61546174     0.00000000     0.00000000
        3.31337023     6.21250191     0.00000000
        0.00000000     0.00000000    12.25246857
PRIMCOORD
24 1
Ti      4.36128686     3.68152288     4.54557847     0.00024297    -2.23109051     0.32078483
Ti      5.56754529     2.53097918     7.70689023    -0.00024297     2.23109051    -0.32078483
Ti      7.05527991     2.53098140     1.58060693    -0.58404455    -1.46453304     0.58111015
Ti      2.87355244     3.68152095    10.67186184     0.58404455     1.46453304    -0.58111015
Ti      2.70460200     0.57527214     1.58065608     0.00024297    -2.23109051    -0.32078483
Ti      7.22423027     5.63723017    10.67181276    -0.00024297     2.23109051     0.32078483
Ti      1.21686726     0.57526975     7.70684108     0.58404455     1.46453304     0.58111015
Ti      8.71196499     5.63723249     4.54562755    -0.58404455    -1.46453304    -0.58111015
O       3.26052946     2.18752758     6.25234095     1.76472205     1.96279502    -0.92039460
O       6.66830277     4.02497453     6.00012775    -1.76472205    -1.96279502     0.92039460
O       2.38064154     2.18755259     0.12614604     0.30948252    -1.29210966     1.86371804
O       7.54819076     4.02494957    12.12632227    -0.30948252     1.29210966    -1.86371804
O       5.01161778     0.91872355     0.12610627    -1.76472205    -1.96279502    -0.92039460
O       4.91721443     5.29377850    12.12636204     1.76472205     1.96279502     0.92039460
O       5.89150578     0.91869859     6.25238065    -0.30948252     1.29210966     1.86371804
O       4.03732639     5.29380354     6.00008799     0.30948252    -1.29210966    -1.86371804
O       2.25573460     3.77879579     3.30969743     0.64885720     3.26777049     3.03141917
O       7.67309763     2.43370633     8.94277120    -0.64885720    -3.26777049    -3.03141917
O       4.84605894     2.43364830     2.81657583     0.51452498     2.17229836     2.07754674
O       5.08277328     3.77885381     9.43589261    -0.51452498    -2.17229836    -2.07754674
O       0.59904961     0.67254480     2.81653672     0.64885720     3.26777049    -3.03141917
O       9.32978260     5.53995725     9.43593172    -0.64885720    -3.26777049     3.03141917
O       3.42608829     0.67260282     8.94281025    -0.51452498    -2.17229836     2.07754674
O       6.50274391     5.53989923     3.30965833     0.51452498     2.17229836    -2.07754674
