# total energy = -4986.10051483 eV

CRYSTAL
PRIMVEC
        4.29755748     0.00000000     0.00000000
       -0.00000957     4.29755748     0.00000000
       -2.14881244    -2.14881723     5.48463913
PRIMCOORD
6 1
Ti     -0.00018925     3.22333088     1.37115963    -0.00131229     0.00131229     0.00000000
Ti      2.14892460    -1.07459075     4.11347914     0.00131229    -0.00131229     0.00000000
O       0.00004293     1.07438207     0.89340284    -0.00039055    -0.00213273    -1.15700611
O       2.14869230     1.07435794     4.59123600     0.00039055     0.00213273     1.15700611
O      -0.00002427    -1.07436341     3.63572234    -0.00213273    -0.00039055    -1.15700611
O       2.14875944     3.22310337     1.84891649     0.00213273     0.00039055     1.15700611
