# total energy = -19515.77135837 eV

CRYSTAL
PRIMVEC
        5.17600016     0.00000000     0.00000000
        0.00000000     5.50899976     0.00000000
        0.00000000     0.00000000     9.26300011
PRIMCOORD
23 1
Ti      2.03055900     3.12822798     3.32501302    -1.56156831     0.21514382     3.42013900
Ti      3.32456502     2.27894802     5.93753602    -0.19417107     0.03234372    -1.82276884
Ti      4.36900099     2.14599198     1.49903802    -0.87423428    -0.20757783    -2.23691354
Ti      0.84773799     3.31503501     7.80584303    -1.22363961     0.86895760     0.75157513
Ti      1.94110899     0.25994901     1.42536999    -1.16084682     0.01713307    -3.55667646
Ti      3.31726200     5.23887801     7.90392301    -0.51847240     1.05937486     2.26267292
Ti      0.73515399     0.53021698     5.88708098    -0.23776054    -1.11882958    -2.73590263
Ti      4.50946501     4.80129298     3.44116398     0.78422095     0.96422498     2.19819837
O       1.80249800     1.74017700     4.83225900    -0.68619555     1.00713388    -1.63608816
O       3.63917899     3.35408400     4.48068401    -0.18389822     1.32464621    -1.46637987
O       4.71206999     3.15678799     9.04127902     0.15906856    -1.05884392     1.78961265
O       3.67412099     0.81660702     0.28478499    -0.84634783    -0.85138565    -1.47313467
O       1.56255898     5.06622700     9.01560001     1.43305064    -1.09848186     0.24820205
O       4.16290899     0.64349202     4.88937199     0.45402793    -0.58894199    -0.90863077
O       0.86235899     4.62694902     4.52879903     0.96254450    -0.23399747    -0.28369229
O       0.28494300     3.31901897     2.47035699     0.53226046     0.50509237    -0.05018590
O       5.04797001     2.02909799     6.60434698     0.54540729     1.52723764     1.92783623
O       2.52652000     1.83991702     2.16389801     1.30242596     1.00210274    -0.16808439
O       2.52295102     3.90149300     6.84683102    -0.11198675    -1.61902786     0.38575638
O       0.16604000     0.65531802     2.07511397     0.44730578    -0.63675579     0.96405863
O       5.10931700     4.81261001     7.30507100    -0.69397982     0.96627466    -1.73520603
O       2.33627999     1.03042701     6.94434902     0.10891454    -0.51350426     2.41921948
O       2.83406702     4.51213502     2.20782898     1.56387434    -1.56231933     1.70639269
