# total energy = -19073.87775655 eV

CRYSTAL
PRIMVEC
        5.17600016     0.00000000     0.00000000
        0.00000000     5.50899976     0.00000000
        0.00000000     0.00000000     9.26300011
PRIMCOORD
22 1
Ti      1.73110997     3.37152902     3.33772999     0.47105867     0.70135658    -0.33363290
Ti      3.99019300     2.22731202     5.84435701    -1.61255819    -0.09348869    -1.36976600
Ti      4.36180100     2.12536100     1.31742000     0.36273111     0.21798258    -1.68387008
Ti      0.69327998     3.29034498     8.04923699    -0.42953611    -1.17966705     1.81675322
Ti      1.74655301     0.43806198     1.39458002    -0.38794953     1.84102985    -1.65150888
Ti      3.06739800     5.12719001     8.03963099     1.11877302     0.95314378     0.99153062
Ti      0.98922702     0.12009101     6.05198198     0.09899085    -0.05763644    -1.68725828
Ti      4.26946799     4.94634898     3.43752002     0.87487165    -0.19672623     0.87207378
O       3.43454498     3.38182898     4.27850501     0.55584854    -0.40263156     2.68137671
O       0.84799501     1.98750699     0.25675400    -0.72141839     0.70482217    -0.76537167
O       4.13887398     3.70586898     8.56861203    -0.18897152    -0.33974827     0.59355815
O       3.37298399     0.84685802     0.17574500    -0.01470363     0.56784840    -0.20824452
O       1.58974599     4.74118902     9.26231800    -0.97601246    -0.75990113    -1.26324850
O       4.42931899     0.82432999     4.76437699    -0.44638635     0.16727423    -0.29175501
O       1.12781902     5.11281502     4.28699698     0.19871729    -1.85960890     0.40019518
O       0.01931000     3.54006499     2.37027402     0.33242396    -0.35550682     0.44171749
O       0.32779599     1.73013502     6.80369900    -0.01956353     1.23754620     0.89139717
O       2.58277303     2.03077702     2.27416500     0.05632543    -0.28944410     0.24504731
O       1.94627799     4.06846800     6.92341102     0.19688050     0.15995739    -1.63893772
O       5.10488302     0.67189000     2.07398598     0.37143404    -0.77086406     1.19071071
O       2.75028498     1.05240300     6.56666300    -0.53048666    -0.76495387     1.32300765
O       2.67094703     4.68367402     2.38860699     0.68953104     0.51921596    -0.55377443
