# total energy = -19516.81924420 eV

CRYSTAL
PRIMVEC
        5.17600016     0.00000000     0.00000000
        0.00000000     5.50899976     0.00000000
        0.00000000     0.00000000     9.26300011
PRIMCOORD
23 1
Ti      1.87959901     3.37351502     3.38570399    -0.62323538    -1.52418729     1.98990397
Ti      3.25215103     2.27590002     5.88496602     1.30337341     0.60837337    -3.39383969
Ti      4.31658699     2.05029202     1.52857098     1.87554512    -0.34293027    -0.71159292
Ti      0.89597598     3.27292203     7.77349199    -1.77874305     1.11532671     2.14604533
Ti      1.94804502     0.21003701     1.42033799    -0.58701007     0.72643564    -1.79084266
Ti      3.32942001     5.28493802     7.92493299    -0.49834888    -0.44546076     0.61532589
Ti      0.72019098     0.62900500     5.82496700    -1.14360423    -0.87509663    -2.72217191
Ti      4.48548899     4.92390001     3.40477299     0.48701186     0.51798415     2.70166684
O       1.68636100     2.02921102     4.82800801    -0.52212157    -0.02607922    -0.54790023
O       3.51838502     3.60726198     4.37620701    -0.01451234    -0.51387527     1.80365936
O       0.41916098     2.44023299     0.17886302    -0.38916823     0.58606107    -1.13242738
O       3.44761301     0.72135802     0.29883899     0.96521897     1.27106106    -0.97809686
O       1.71677800     4.85153598     8.97681301    -0.34414254    -0.94630541    -0.11325431
O       4.18230498     0.77898998     4.81923902     0.63830154     0.06418556    -0.79704382
O       0.95405398     4.70253400     4.48767698     0.42189556     0.64373068    -0.12072259
O       0.11933100     3.38768798     2.60491200     0.49696229    -1.43112746    -1.04886573
O       5.07463800     2.07138597     6.72720601    -1.16903553     0.61077298     1.08028745
O       2.59134998     1.74810402     2.40043601     0.22547555     0.64198927    -0.50828671
O       2.47254900     3.63141802     6.97589302     1.87640592    -0.02584731     0.45570686
O       0.15639199     0.52240600     2.03856899    -0.20727033     0.64605830     0.18277568
O       5.08323100     4.77142600     6.99390002    -0.89304859    -0.42146567     1.75857788
O       2.41470501     0.81796901     6.69794902     0.22707246    -0.85665332     2.27051710
O       2.97110800     4.45952798     2.25410903    -0.34702192    -0.02295019    -1.13942078
