# total energy = -19519.89317670 eV

CRYSTAL
PRIMVEC
        5.17575250     0.00001323     0.00000000
        0.00001429     5.50856584     0.00000000
        0.00000000     0.00000000     9.26345890
PRIMCOORD
23 1
Ti      1.84075233     3.32073858     3.41363670     0.03293841     0.02055675     0.03872109
Ti      3.31157557     2.19097433     5.75913541     0.02039374     0.05424850     0.06693304
Ti      4.51888867     2.00336303     1.36571810    -0.01297405    -0.04907518     0.00334706
Ti      0.84904699     3.25993392     7.96213005    -0.02595272     0.07994745    -0.03332871
Ti      1.86428516     0.59127921     1.13647904     0.09247053     0.02627154    -0.02440595
Ti      3.21867399     5.11061401     7.96482691     0.03320015    -0.02509243     0.04766544
Ti      0.66411636     0.54753377     5.77148632     0.02091130     0.07641501    -0.06774165
Ti      4.39552232     4.88748791     3.45249785     0.03011534     0.00111714     0.02565705
O       1.62267887     1.93418419     4.71453558    -0.06293857    -0.10597088     0.00106701
O       3.52699295     3.58551754     4.53691363     0.00214996     0.01003708    -0.02270491
O       0.85904128     1.98646403     0.08497061     0.01552921     0.08861130    -0.01434573
O       3.56258340     0.85594542     0.09063016     0.01120770    -0.05450535    -0.04257543
O       1.69728749     4.65868928     9.18282912     0.06155275     0.04315547     0.02847986
O       4.21745392     0.81653719     4.73315139    -0.03311428    -0.03315747     0.02770673
O       0.94666355     4.65502556     4.57484290    -0.04765696     0.04348663    -0.01247834
O       0.16341358     3.39773787     2.44644508    -0.00218930     0.02387964     0.00800770
O       4.98585686     2.13925859     6.78856102    -0.02539968    -0.01432928    -0.08035035
O       2.76626478     2.19994480     2.10344566    -0.08745148    -0.06302805     0.05012779
O       2.52602256     3.35239597     7.17524507     0.04299066     0.03726198    -0.05114595
O       0.22648135     0.59673838     2.20683557    -0.03103760    -0.04145468     0.00146013
O       4.97486109     4.84294877     7.27498618    -0.03101523    -0.09403916     0.04520078
O       2.35899531     0.65919238     6.76932595    -0.01863768     0.05232248     0.00693864
O       2.78572952     4.94155040     2.48479469     0.01490803    -0.07665824    -0.00223558
