# total energy = -19931.67299764 eV

CRYSTAL
PRIMVEC
        4.98684322     0.00000000     0.00000000
        2.27331603     4.79600735     0.00000000
        0.00000000     0.00000000     9.17198320
PRIMCOORD
24 1
Ti      3.15465574     2.84210949     3.40274033     4.52968150    -4.49359194     1.29291853
Ti      4.10550334     1.95389780     5.76924292    -4.52968150     4.49359194    -1.29291853
Ti      5.22698187     1.95389942     1.18321466    -9.48135857     2.24177782     2.30056354
Ti      2.03317730     2.84210805     7.98876873     9.48135857    -2.24177782    -2.30056354
Ti      2.01799784     0.44410589     1.18325142     4.53010959    -4.49351403    -1.29261257
Ti      5.24216127     4.35190154     7.98873197    -4.53010959     4.49351403     1.29261257
Ti      0.89651928     0.44410412     5.76920616     9.48149098    -2.24093604     2.30007452
Ti      6.36363988     4.35190330     3.40277714    -9.48149098     2.24093604    -2.30007452
O       2.37884053     1.68875570     4.68039282    -1.10950573     0.33580779    -1.35464328
O       4.88131855     3.10725159     4.49159047     1.10950573    -0.33580779     1.35464328
O       1.71556577     1.68877507     0.09443072     2.03686827    -0.19813468    -1.69567273
O       5.54459338     3.10723230     9.07755232    -2.03686827     0.19813468     1.69567273
O       3.74466063     0.70924789     0.09440093     1.10956461    -0.33606208    -1.35451473
O       3.51549846     4.08675944     9.07758207    -1.10956461     0.33606208     1.35451473
O       4.40793545     0.70922856     4.68042257    -2.03708656     0.19848230    -1.69590644
O       2.85222360     4.08677879     4.49156068     2.03708656    -0.19848230     1.69590644
O       1.56394319     2.91720357     2.47758149     0.19834551    -3.01127791    -2.62537987
O       5.69621584     1.87880372     6.69440181    -0.19834551     3.01127791     2.62537987
O       3.56515013     1.87875909     2.10843931     2.49374088    -2.55517175    -3.79663066
O       3.69500895     2.91724819     7.06354379    -2.49374088     2.55517175     3.79663066
O       0.42728526     0.51919983     2.10841001     0.19860725    -3.01112210     2.62534438
O       6.83287377     4.27680747     7.06357309    -0.19860725     3.01112210    -2.62534438
O       2.55835102     0.51924445     6.69443101    -2.49369357     2.55495964    -3.79649954
O       4.70180806     4.27676284     2.47755219     2.49369357    -2.55495964     3.79649954
