# total energy = -19517.94997594 eV

CRYSTAL
PRIMVEC
        5.93400000     0.00000000     0.00000000
        0.00000000     9.29699974     0.00000000
        0.00000000     0.00000000     4.64899994
PRIMCOORD
23 1
Ti      4.55253400     7.05765000     2.26393198     0.52681049     0.36304710     0.07375624
Ti      4.34197998     2.29021199     2.32127998     1.68627997    -0.25158177     0.30350084
Ti      1.49459801     7.05064999     2.25264903    -0.20992397    -0.03650351     0.10655812
Ti      1.40330202     2.28545997     2.33047502    -1.23279891     0.30910019     0.03901008
Ti      2.98311303     4.49963300     0.13577799     0.25773056    -0.52101497    -0.47245838
Ti      2.90554601     9.26175802     4.59550600     0.79273799     0.35066749     0.39598911
Ti      0.01679201     4.68846403     0.05079498    -0.14907647    -1.34202970    -0.52909286
Ti      5.91974000     0.04454000     0.00963198    -0.49047205     0.97731807    -0.11882975
O       4.40727199     5.50308700     0.95623102    -0.23263761     1.01479088     0.12593988
O       4.49987700     0.93669898     0.92756803    -0.23323334    -0.31409919    -0.23155595
O       1.55470202     5.52959899     0.91395298     0.10399988     0.61059995    -0.01173041
O       1.47917202     0.93720799     0.81424900     0.77116566    -0.30920484     0.32388096
O       4.57362198     8.34673203     3.83548999    -1.31878255    -0.50951236    -0.86911521
O       4.49496698     3.69669802     3.82544102    -0.76050689     0.47865037    -1.01426278
O       1.56956698     8.33704898     3.68244299    -0.02448565     0.05215022     0.73271376
O       1.36554697     3.70175600     3.63841200     1.04191192     1.36116026     0.85498468
O       2.87919801     1.36391102     3.15410200     0.79036075    -0.27069381     0.66662096
O       0.04258803     6.25642802     3.18080603     0.21425602    -1.87364122     1.12691133
O       5.93330900     1.45425999     3.27327102    -0.30954165    -0.54526870    -0.50556160
O       3.07296399     8.00441398     1.58598200    -0.49882479    -0.37866707    -0.86689403
O       2.95725700     3.13631698     1.34124297    -0.27175928     0.27547684     0.28767518
O       0.11728499     7.92594398     1.39817498    -0.52317881     0.08403962    -0.50446040
O       5.89898900     3.20999798     1.36943098     0.06996900     0.47521640     0.08642072
