# total energy = -19901.90607157 eV

CRYSTAL
PRIMVEC
        6.73058170     0.00000000     0.00000000
        0.35798189     7.15442377     0.00000000
        0.00000000     0.00000000    12.05002804
PRIMCOORD
24 1
Ti      2.65165179     4.23970473     4.47047445    -0.01889067    -1.12470636     0.62629242
Ti      4.43691152     2.91471878     7.57955372     0.01889067     1.12470636    -0.62629242
Ti      5.95053407     2.91472122     1.55449148     0.13732884     0.68953387    -0.58935980
Ti      1.13802931     4.23970256    10.49553683    -0.13732884    -0.68953387     0.58935980
Ti      2.47266099     0.66249311     1.55453977    -0.01889067    -1.12470636    -0.62629242
Ti      4.61590233     6.49193060    10.49548854     0.01889067     1.12470636     0.62629242
Ti      0.95903849     0.66249046     7.57950536    -0.13732884    -0.68953387    -0.58935980
Ti      6.12952489     6.49193325     4.47052281     0.13732884     0.68953387     0.58935980
O       2.25632301     2.51919412     6.14903707     1.48504068     1.46013106    -0.15002238
O       4.83224030     4.63522938     5.90099110    -1.48504068    -1.46013106     0.15002238
O       1.36111151     2.51922300     0.12406179    -1.28524507     1.11042413     0.13782661
O       5.72745187     4.63520058    11.92596604     1.28524507    -1.11042413    -0.13782661
O       4.65324949     1.05801756     0.12402271    -1.48504068    -1.46013106    -0.15002238
O       2.43531381     6.09640595    11.92600512     1.48504068     1.46013106     0.15002238
O       5.54846107     1.05798875     6.14907622     1.28524507    -1.11042413     0.13782661
O       1.54010218     6.09643489     5.90095196    -1.28524507     1.11042413    -0.13782661
O       0.46228247     4.35172595     3.25501325     0.48613768     0.06537135     0.58831670
O       6.62628091     2.80269756     8.79501499    -0.48613768    -0.06537135    -0.58831670
O       3.75007536     2.80263090     2.77003915     0.49751199     0.60787175    -0.06367211
O       3.33848802     4.35179260     9.27998881    -0.49751199    -0.60787175     0.06367211
O       0.28329166     0.77451412     2.77000070     0.48613768     0.06537135    -0.58831670
O       6.80527171     6.37990938     9.28002727    -0.48613768    -0.06537135     0.58831670
O       3.15949721     0.77458078     8.79505338    -0.49751199    -0.60787175    -0.06367211
O       3.92906616     6.37984272     3.25497473     0.49751199     0.60787175     0.06367211
