# total energy = -19519.41481995 eV

CRYSTAL
PRIMVEC
        7.60600008     0.00000000     0.00000000
        0.00000000     7.60600008     0.00000000
       -1.89786986    -1.89786986     4.85670466
PRIMCOORD
23 1
Ti      3.81062300     6.68356402     1.19512502     0.35213173     0.17180683     0.10560604
Ti      3.80936499     2.87946202     1.17867300    -0.05344220    -0.20279121     0.87457598
Ti      0.01964602     6.61793599     1.18525898    -0.28597543     0.08470554     0.21508777
Ti     -0.01032398     2.74900998     1.19662000     0.17454223     0.26486795    -0.32308906
Ti      5.56435620     2.83790224     3.75476681     0.34236488    -0.06044280    -0.70411100
Ti      5.70260021    -0.92836677     3.61035783    -0.17616485    -0.19243069    -0.07390407
Ti      1.97354020     2.91235023     3.65617981     0.60371093    -0.21320958    -0.08701516
Ti      1.89431723    -0.93909880     3.58243081     0.19417698     0.25025508     0.44276984
O       3.90166800     4.76111699     0.78331499    -0.11821782    -0.36700300     0.03787236
O       3.70185199     0.96947601     0.76909299     0.08931424     0.66973020     0.21839447
O      -0.11955098     4.62690500     0.79806602     0.30613211     1.80736047     0.61867141
O       0.11679302     0.91902202     0.73709602     0.15594466    -0.59012959     0.58558028
O       5.73307622     4.73411922     4.06415081     0.48130272    -0.55032427     0.16389657
O       5.58126823     0.92161722     4.04978180     0.56795947    -0.11665588    -0.09214040
O       1.90850321     4.80694925     4.03638980    -0.57667448    -0.84839494     0.48296288
O       1.87915525     1.00689921     3.89992081    -0.19600324    -0.13121964     1.08758578
O       3.83193223     2.92655324     3.26196081    -1.14615476    -0.00271920    -1.02538872
O       3.82706723    -1.05232775     3.30680181    -0.25245748     0.41334535    -0.73053733
O      -0.00192679    -0.91162778     3.19367181     0.10874819    -0.10765059    -0.31919641
O       5.68566299     6.77246601     1.61787499     0.41662223    -0.29721064    -0.22629907
O       5.82350202     2.73430103     1.77651597    -0.51092107    -0.05278091    -0.28981203
O       1.94926202     6.47023600     1.65711099    -0.67851720     0.34487582    -0.53342928
O       1.84460997     2.97955299     1.70423100     0.20157816    -0.27398431    -0.42808086
