# total energy = -19073.32019967 eV

CRYSTAL
PRIMVEC
        5.93400000     0.00000000     0.00000000
        0.00000000     9.29699974     0.00000000
        0.00000000     0.00000000     4.64899994
PRIMCOORD
22 1
Ti      4.36166300     6.82223100     2.29334699    -0.32665286     1.81327118    -0.12793171
Ti      4.37889999     2.27725302     2.15318302     0.52170248     0.66704057    -0.12612937
Ti      1.51978801     7.05416002     2.50090100    -0.79382145     0.97854706    -0.30854535
Ti      1.64992900     2.43505801     2.29577798    -0.45506897     0.45680138    -1.34622343
Ti      3.03947601     4.70565303     4.45915999    -0.68531983    -1.07354858     0.93336916
Ti      2.91927700     0.05247200     4.60330898     0.03729952    -0.41125273     0.75545132
Ti      5.86694600     4.67571498     4.59750899     0.04755360    -0.63381547    -0.68883556
Ti      5.85787500     9.07712099     0.21343798    -0.26835719    -1.20122498     0.68106440
O       4.38733799     5.67447799     0.82639399     0.87523367    -0.83038333    -0.03373880
O       4.45014101     0.74430902     1.08810802     0.75558091     0.82451504    -0.82149193
O       1.63210202     0.76444199     1.18240201    -1.28599634     0.80062228    -1.00725729
O       4.41889801     8.22204400     3.81483800     1.19651524     1.95580779     1.52099372
O       4.45575600     3.98194800     3.57796498     0.45136838    -2.10083760    -0.36914473
O       1.41015201     8.50023899     3.67821401    -0.41812375     0.31045697     1.03588962
O       1.60754899     3.97856200     3.47103900    -1.18328356    -0.52616334     0.99996924
O       2.92464301     6.20560700     3.41809900    -0.56820270     0.23789012    -0.58838715
O       3.04768001     1.58249901     3.39117102     0.20589299    -0.47063752     0.39772744
O       5.80467898     5.92466801     3.11574501     2.40085743    -0.05582638     1.17669382
O       3.07138201     8.13044501     1.61116999    -1.17440554    -2.78746895    -0.31962989
O       3.08508299     3.20666602     1.23151299    -0.43920218    -0.05016481     0.34972261
O       5.87784900     7.80247201     1.65029201     0.81905170     1.15335025    -2.24020687
O       0.03082299     2.95119300     1.35753999     0.28737848     0.94302134     0.12664025
