# total energy = -19927.08262587 eV

CRYSTAL
PRIMVEC
        6.21090301     0.00000000     0.00000000
        0.00003404     6.61027900     0.00000000
        0.00000000     0.00000000    11.11615068
PRIMCOORD
24 1
Ti      2.25117379     3.91724522     4.12401270     0.04388849    -0.87332231     0.62298418
Ti      3.95976326     2.69303384     6.99213830    -0.04388849     0.87332231    -0.62298418
Ti      5.35651656     2.69303612     1.43401838     0.04421656     0.87262194    -0.62302686
Ti      0.85442049     3.91724320     9.68213275    -0.04421656    -0.87262194     0.62302686
Ti      2.25115689     0.61210585     1.43406296     0.04388849    -0.87332231    -0.62298418
Ti      3.95978015     5.99817341     9.68208817    -0.04388849     0.87332231     0.62298418
Ti      0.85440360     0.61210339     6.99209372    -0.04421656    -0.87262194    -0.62302686
Ti      5.35653345     5.99817587     4.12405728     0.04421656     0.87262194     0.62302686
O       1.96580200     2.32759167     5.67248672     1.38975145     1.28256238     0.02032252
O       4.24513505     4.28268746     5.44366428    -1.38975145    -1.28256238    -0.02032252
O       1.13970979     2.32761829     0.11444701    -1.38962110     1.28285703     0.01960955
O       5.07122732     4.28266084    11.00170368     1.38962110    -1.28285703    -0.01960955
O       4.24511815     0.97754789     0.11441094    -1.38975145    -1.28256238     0.02032252
O       1.96581889     5.63273117    11.00173975     1.38975145     1.28256238    -0.02032252
O       5.07121043     0.97752127     5.67252279     1.38962110    -1.28285703     0.01960955
O       1.13972656     5.63275786     5.44362821    -1.38962110     1.28285703    -0.01960955
O       0.22567715     4.02074642     3.00274969     0.49031778    -0.28426410     0.32951039
O       5.98525989     2.58953265     8.11340131    -0.49031778     0.28426410    -0.32951039
O       3.33113363     2.58947104     2.55536115     0.49013549     0.28448110    -0.32970708
O       2.87980341     4.02080803     8.56078966    -0.49013549    -0.28448110     0.32970708
O       0.22566026     0.71560686     2.55532565     0.49031778    -0.28426410    -0.32951039
O       5.98527679     5.89467221     8.56082516    -0.49031778     0.28426410     0.32951039
O       2.87978652     0.71566846     8.11343674    -0.49013549    -0.28448110    -0.32970708
O       3.33115053     5.89461060     3.00271420     0.49013549     0.28448110     0.32970708
