# total energy = -19516.45721630 eV

CRYSTAL
PRIMVEC
        5.17600016     0.00000000     0.00000000
        0.00000000     5.50899976     0.00000000
        0.00000000     0.00000000     9.26300011
PRIMCOORD
23 1
Ti      1.90086199     3.20826202     3.46343901    -2.07812010    -1.41993801     1.15149083
Ti      3.37140800     2.24608400     5.72787298     0.11609332    -0.00140717    -0.26988469
Ti      4.33172998     2.05199602     1.53572900     2.69235250    -1.06853519    -0.36466870
Ti      0.80530199     3.39694398     7.76913098    -0.67050153     0.25785835     0.20792416
Ti      2.13709799     0.15878699     1.27470502    -2.30158941     3.59077444    -1.85727357
Ti      3.13165800     5.25630900     7.74863298     0.60527725     0.05151876     1.00243467
Ti      0.79429003     0.59013402     5.92612701    -1.14734596    -1.04722562    -1.79355672
Ti      4.36548101     4.99010199     3.35040998     2.99534169     0.69189954     2.23645023
O       1.72108201     1.81080100     4.80276700    -0.60895007     1.22102969    -0.73291328
O       3.40325399     3.64709802     4.42840997     1.13222889    -0.23206143     1.40538993
O       0.25047399     2.77276502     0.06233602    -0.77143074    -0.39065793     0.90079378
O       3.60449999     0.87761401     0.22979702    -1.02287881    -0.28081265    -0.67922014
O       1.95038801     4.58039402     9.01174601    -0.37058995     0.25127041     0.40913491
O       4.17152199     0.64553100     4.79246201    -0.48759550     1.46517993     0.48349047
O       0.85675300     4.78681500     4.54248302     0.93016633    -0.94795992     0.29093046
O       0.16634697     3.29795301     2.76615803    -0.91998990    -0.30881429    -1.33094027
O       4.94786698     2.03290801     6.80903798     0.08493025     1.11509094    -0.45396648
O       2.75882199     1.65108901     2.55600401     0.35427449     1.14699860    -1.22652208
O       2.54072502     3.52869599     6.94156698     0.37963715     1.31626595    -0.11709040
O       0.40100502     0.54108501     2.10410802    -1.17996581     0.54664065    -0.65771723
O       4.93564801     4.99975799     7.33044902     0.70149516    -1.41626442    -0.01825098
O       2.28085899     1.20515203     7.00766699     0.18285127    -1.65155387     0.77302302
O       2.78768702     4.52807400     2.32586398     1.38430997    -2.88929728     0.64094206
