# total energy = -19517.92077648 eV

CRYSTAL
PRIMVEC
        5.93400000     0.00000000     0.00000000
        0.00000000     9.29699974     0.00000000
        0.00000000     0.00000000     4.64899994
PRIMCOORD
23 1
Ti      4.56695900     6.99261301     2.32921198     0.14743637     0.46491656    -0.32250670
Ti      4.41674998     2.30682799     2.36241901     1.05094909    -0.21844769    -0.03281577
Ti      1.52806800     7.11670502     2.28673503    -0.82956803     0.11016127    -0.52783071
Ti      1.46774401     2.31750298     2.28974800    -1.33876029    -0.11913545     0.35870142
Ti      2.94395999     4.43487202     0.06236999    -0.29460688     1.62561374    -0.53472538
Ti      3.00357298     0.05662900     4.63445498     0.19756853    -0.69537748    -0.00728240
Ti      5.91502402     4.63433501     0.01769802     0.40377030     0.56527061     0.18755536
Ti      0.02380102     0.06911002     0.05813298    -0.88699107    -0.36374207    -0.62846732
O       4.50298798     5.53358698     0.91659299    -0.72830124     0.03974464    -0.41298771
O       4.35741899     0.88279598     1.00843398     0.21107402     0.25979722    -0.84490621
O       1.52359698     5.54476600     0.83308501     0.19314545     0.40112644    -0.02616073
O       1.46564598     0.83304501     0.92877100     0.15817484     0.68098546     0.18327242
O       4.35806099     8.43720700     3.73582602     0.24789917    -0.68009663    -0.06037390
O       4.45103997     3.65514802     3.75599503    -0.29483674     0.60364280    -0.59832858
O       1.23646498     8.31469400     3.73985401     1.83977103     0.18816471     0.01268300
O       1.51258401     3.71748399     3.61660799     0.17663177     0.74253924     0.51003584
O       2.88875098     1.38686499     3.16664302     0.29799328    -0.17634715     0.71929697
O       0.01863000     6.14177499     3.15155798     0.36075702    -1.47464262     0.94761359
O       5.93204998     1.41986898     3.23609902    -0.34034888     0.18106666     0.04272044
O       3.07505397     7.92886202     1.46854900    -1.39452753    -0.66650423     0.08346241
O       2.87649497     3.27311602     1.35087702     0.74834788    -1.50175415     1.28523787
O       5.92473400     7.89095298     1.43612699     0.16657721     0.56740643    -0.87035680
O       5.91400001     3.23863002     1.31026399    -0.09215531    -0.53438805     0.53616288
