# total energy = -4986.09429363 eV

CRYSTAL
PRIMVEC
        2.81050700     0.00000000     0.00000000
        1.08397384     4.26814637     0.00000000
       -0.00000697    -0.00005771     4.43899681
PRIMCOORD
6 1
Ti      1.94723683     2.13404424     2.21949845     0.00000000     0.00000000     0.00000000
Ti      0.00000000     0.00000000     0.00000000     0.00000000     0.00000000     0.00000000
O       1.61650260     0.83178756     0.86509512    -4.01308497     1.86588677     2.10893401
O       2.27797101     3.43630093     3.57390179     4.01308497    -1.86588677    -2.10893401
O       0.33073127     1.30223332     3.08459447     4.01389050    -1.86896823     2.11219108
O       0.75323549     2.96585525     1.35440244    -4.01389050     1.86896823    -2.11219108
