# total energy = -19961.64756176 eV

CRYSTAL
PRIMVEC
        5.25503109     0.00000000     0.00000000
        0.27950125     5.58595395     0.00000000
        0.00000000     0.00000000     9.40829112
PRIMCOORD
24 1
Ti      2.07032813     3.31023100     3.49040890     0.23259879    -0.40752206     0.31435219
Ti      3.46420399     2.27572274     5.91788233    -0.23259879     0.40752206    -0.31435219
Ti      4.64599391     2.27572465     1.21369912    -0.25996151    -0.09780017     0.07306409
Ti      0.88853827     3.31022930     8.19459222     0.25996151     0.09780017    -0.07306409
Ti      1.93057762     0.51725424     1.21373682     0.23191848    -0.40745213    -0.31062949
Ti      3.60395451     5.06869966     8.19455451    -0.23191848     0.40745213     0.31062949
Ti      0.74878775     0.51725217     5.91784457     0.25999673     0.09753458     0.06998031
Ti      4.78574443     5.06870173     3.49044666    -0.25999673    -0.09753458    -0.06998031
O       1.76166758     1.96690926     4.80097895     0.32146772     0.37706373    -0.13255327
O       3.77286454     3.61904448     4.60731228    -0.32146772    -0.37706373     0.13255327
O       1.06271398     1.96693180     0.09686362    -0.15939740     0.04998484     0.15690086
O       4.47181819     3.61902199     9.31142733     0.15939740    -0.04998484    -0.15690086
O       3.63311403     0.82606756     0.09683312    -0.32015363    -0.37584991    -0.13310220
O       1.90141809     4.75988618     9.31145784     0.32015363     0.37584991     0.13310220
O       4.33206768     0.82604507     4.80100951     0.16021347    -0.05094283     0.15758811
O       1.20246439     4.75990878     4.60728172    -0.16021347     0.05094283    -0.15758811
O       0.36093593     3.39769372     2.54141419    -0.02231847     0.01856389     0.04146677
O       5.17359625     2.18826002     6.86687709     0.02231847    -0.01856389    -0.04146677
O       2.92794345     2.18820797     2.16276134     0.22127462     0.08847761    -0.10352782
O       2.60658872     3.39774576     7.24552973    -0.22127462    -0.08847761     0.10352782
O       0.22118541     0.60471680     2.16273132    -0.02172892     0.01880531    -0.04103508
O       5.31334676     4.98123694     7.24555975     0.02172892    -0.01880531     0.04103508
O       2.46683821     0.60476884     6.86690706    -0.22053260    -0.08881108    -0.10373377
O       3.06769397     4.98118489     2.54138411     0.22053260     0.08881108     0.10373377
