# total energy = -39482.85854297 eV

CRYSTAL
PRIMVEC
        7.60629642    -0.00000847    -0.00005503
       -0.00000847     7.60629642    -0.00005503
       -3.80314186    -3.80314186     9.70738094
PRIMCOORD
47 1
Ti      1.90149522     4.65533271     6.11631114     0.00008536     0.00834220    -0.06137791
Ti      3.84399970     6.65571533     1.19289928    -0.07796179    -0.00003342    -0.08925922
Ti      1.90145686     1.04925089     6.11652893     0.00011493    -0.00846048    -0.06207314
Ti      3.79499929     2.85254306     1.22097347     0.01713230    -0.00006042     0.01512246
Ti     -1.90168033     4.76357393     6.05856723     0.00018229    -0.03031486    -0.01399863
Ti     -0.04103124     6.65567634     1.19295694     0.07831249     0.00011699    -0.08927079
Ti     -1.90171294     0.94155269     6.05854728     0.00006376     0.03011277    -0.01395981
Ti      0.00782985     2.85253486     1.22102916    -0.01731664    -0.00005554     0.01532507
Ti      3.81038501     0.94197829     8.50109848     0.00233585    -0.01114934     0.05200521
Ti      5.70495738     2.85222225     3.63881162     0.00030956     0.00007996     0.02057320
Ti      3.81036557    -2.84387669     8.50109717     0.00268937     0.01162782     0.05216153
Ti      5.70478187    -0.95095644     3.65078727    -0.00038181    -0.00009410    -0.04087927
Ti     -0.00699207     0.94196502     8.50111014    -0.00263230    -0.01106860     0.05221270
Ti      1.90180672     2.85219209     3.66977546     0.00032704    -0.00049057     0.16511631
Ti     -0.00688599    -2.84389649     8.50109924    -0.00278991     0.01153397     0.05202064
Ti      1.90162894    -0.95078268     3.47192038    -0.00024271    -0.00057130     0.10756985
O       1.90161983     2.85227570     5.66165032     0.00008536     0.00087263     0.12394239
O       3.80105336     4.75398669     0.79010387     0.00246955    -0.02659139    -0.02188909
O       3.80106948     0.95074638     0.79013733     0.00262458     0.02679553    -0.02198911
O      -1.90153841     2.85237332     5.66924341    -0.00003805     0.00017201     0.03503695
O       0.00218551     4.75398981     0.79014046    -0.00262304    -0.02661916    -0.02180528
O      -1.90156781    -0.95076869     5.63759294    -0.00003831     0.00004474    -0.07969163
O       0.00218981     0.95074930     0.79017031    -0.00273360     0.02677162    -0.02191095
O       3.78635327     2.85236406     8.89255035    -0.01448534     0.00006608    -0.05957840
O       5.70467692     4.75133598     4.05989864     0.00000257    -0.02046085     0.02119901
O       3.81658755    -0.95079186     8.93121642     0.05658512    -0.00017843     0.00594028
O       5.70467928     0.95338004     4.05992405    -0.00002931     0.02043719     0.02117844
O       0.01672429     2.85236526     8.89255333     0.01468435     0.00016352    -0.05971106
O       1.90146142     4.87009532     4.13847771    -0.00028154    -0.03511460    -0.06183043
O      -0.01352844    -0.95078972     8.93123934    -0.05650953    -0.00025634     0.00587214
O       1.90147639     0.83473018     4.13843771    -0.00030776     0.03434018    -0.06251897
O       1.90157588     0.91797207     8.09271101     0.00000051     0.02141164    -0.04795006
O       3.78211663     2.85240680     3.25263585     0.02510400     0.00004731     0.01387059
O       1.90158037    -2.81952956     8.09268398     0.00014861    -0.02176748    -0.04803157
O       3.82331572    -0.95072490     3.19452487    -0.04068232     0.00007636    -0.05585209
O      -1.90157792     0.96394464     8.04901368     0.00010619     0.03992796     0.03179247
O       0.02098991     2.85240529     3.25263912    -0.02510452     0.00006479     0.01380760
O      -1.90156906    -2.86540924     8.04902746     0.00018152    -0.04000458     0.03169606
O      -0.02018144    -0.95072008     3.19459126     0.04044090     0.00008279    -0.05604544
O       3.78224289     4.85130615     6.46317504    -0.03742036     0.06155557     0.05538493
O       5.70469292     6.65544176     1.61696617     0.00015555     0.00000386    -0.12758744
O       3.78225808     0.85335785     6.46318460    -0.03705552    -0.06160443     0.05577933
O       5.70471866     2.85231804     1.65927569    -0.00016789     0.00010387     0.02448077
O       0.02087090     4.85130344     6.46320945     0.03765485     0.06159208     0.05537053
O       1.90157336     6.65546659     1.58479308    -0.00013807     0.00011647    -0.06696055
O       0.02085568     0.85336360     6.46321906     0.03709409    -0.06165996     0.05572097
O       1.90157091     2.85232128     1.65171565     0.00004988     0.00009565     0.10099143
