# total energy = -4985.53889570 eV

CRYSTAL
PRIMVEC
        3.45151499     0.00000000     0.00000000
        0.51482374     3.41290378     0.00000000
       -1.98320047    -1.70647865     4.41741298
PRIMCOORD
6 1
Ti      0.38599229     2.55980829     1.10435300     0.00141771    -0.00127244    -0.00163368
Ti      1.59714633    -0.85338285     3.31305949    -0.00141771     0.00127244     0.00163368
O       0.12874224     0.85322084     0.71956036     0.00091428     0.00304033     1.86567439
O       1.85439623     0.85320447     3.69785214    -0.00091428    -0.00304033    -1.86567439
O      -0.12872112    -0.85320267     2.92826685     0.00302516     0.00085695     1.86293180
O       2.11185954     2.55962798     1.48914565    -0.00302516    -0.00085695    -1.86293180
