# total energy = -19518.92313982 eV

CRYSTAL
PRIMVEC
        7.60600008     0.00000000     0.00000000
        0.00000000     7.60600008     0.00000000
       -1.89786986    -1.89786986     4.85670466
PRIMCOORD
23 1
Ti      3.79971502     6.58237099     1.22371101    -0.13136851     0.82832798     0.48825987
Ti      3.79418802     2.88244002     1.08135598     0.37554369    -0.86892418     1.57832677
Ti     -0.01318599     6.59713398     1.22918699     0.25430919     1.21132017    -0.04817118
Ti     -0.01443998     2.87594601     1.16119100    -0.40542430    -0.93927678    -0.14038897
Ti      5.71761122     2.86336021     3.65229084    -1.84740078     0.65658157    -0.61477465
Ti      5.70021823    -0.92256079     3.63044280     0.02141653    -0.52248667     0.93451896
Ti      1.89828522     2.91359025     3.63322479     1.93848652    -0.44870986    -0.97301378
Ti      1.88527725    -1.01019175     3.66944782     0.01069734     0.43918701    -0.30022500
O       4.00721102     4.74828497     0.70622699    -0.80638695    -0.23160326     0.83632155
O       3.82155601     0.96324399     0.80939798    -0.30203171    -0.21649854     0.05404127
O      -0.16896799     4.81839397     0.75878398     0.53209282    -1.23916574     0.50769870
O       0.02495902     0.93295097     0.84893700     0.00570039     0.23473384    -0.27183255
O       5.89094424     4.75354621     4.12867181    -0.06756065    -0.14383553    -0.73304981
O       5.60516725     0.95307220     4.09671580     0.73878080     0.31516671    -0.96570053
O       1.80250022     4.74112124     4.08932880    -0.46636563    -0.12631320    -0.02567762
O       1.92566421     0.92021124     4.01354581    -0.59386617     0.70671065     0.10489025
O       3.79985525     3.00954024     3.37753783    -0.01119484    -0.30513452    -1.67647378
O       3.80714324    -1.00261679     3.28406782    -0.22636386    -0.23236945    -0.42957005
O      -0.01460180    -1.01038479     3.29792782     0.17732597     0.53733968    -0.69351548
O       5.65296100     6.70591700     1.61569001     0.56501967    -0.07771831     0.51838138
O       5.75936701     2.83037898     1.61259501    -0.57313356     0.02116944     1.00064981
O       1.90909599     6.44830399     1.64948401     0.06027182     0.29324677     0.32622812
O       1.82941401     2.94504999     1.60211000     0.75145223     0.10825248     0.52307699
