# total energy = -19932.76269663 eV

CRYSTAL
PRIMVEC
        5.93400000     0.00000000     0.00000000
        0.00000000     9.29699974     0.00000000
        0.00000000     0.00000000     4.64899994
PRIMCOORD
24 1
Ti      4.42619902     5.86976598     2.17486399     1.90434508     5.17540735     0.83261299
Ti      4.39657298     2.79428602     2.35255901    -0.60059295    -3.95414627    -2.87020837
Ti      1.53281800     5.13785601     2.44656502    -5.19160325    14.48600528     0.19046354
Ti      1.41539499     2.83750202     2.14001402     0.34038539    -7.52097525    -2.46709730
Ti      2.77222398     4.46776298     0.06932000     4.34280260     5.11936423    -1.58135656
Ti      2.91484302     1.17901803     4.53887800     1.16571598    -6.13726589    -1.34547344
Ti      0.07682902     4.16191102     4.60139500    -1.24815946     4.49656979     0.23233962
Ti      0.01563502     1.16495900     4.35725701    -0.97043754    -8.39302383     0.86287977
O       4.61445599     5.36241999     0.50867698    -1.82019927    -0.91905145    -0.20496431
O       4.48385002     1.45009500     0.95680300    -0.47172073     0.98678025     0.53558927
O       1.30607401     5.51351999     0.49575198     0.97274665    -1.59390817     1.91043654
O       1.58305697     1.38078400     1.07725401    -1.42934980     1.31515138    -0.67055064
O       4.75040899     9.02990901     3.85062203     0.41566732     2.63404783     1.40429027
O       4.56646099     3.22996299     4.06338398    -2.60920916    -0.76924941     0.63982132
O       1.55684899     9.20285303     4.03059299     0.28729954     1.66326628     0.53618062
O       1.58022101     3.25455000     3.88937299     0.55437813     0.70581359     1.76057228
O       3.04513599     5.99768701     3.69202501    -0.89110329    -2.23889484    -0.25124624
O       2.93185401     1.57830401     2.81333100     1.16454716     2.53936795    -0.86700510
O       5.92218501     5.60717098     3.51052198    -0.31601004     0.02331323    -1.22607471
O       0.02227101     1.58597301     2.65803500    -0.44852577     2.47050092    -0.57502769
O       2.89703901     6.69962100     1.75233998    -0.19756133     0.31566834     0.06193507
O       2.86610601     4.26435799     1.88436098     6.69831629    -6.87695146     0.87849922
O       0.22456801     7.01619002     1.86757097    -1.33500699    -1.59511505     0.42812020
O       5.86078198     4.03627799     1.80276899    -0.31672455    -1.93267454     1.78526388
