# total energy = -19961.16953181 eV

CRYSTAL
PRIMVEC
        5.93400000     0.00000000     0.00000000
        0.00000000     9.29699974     0.00000000
        0.00000000     0.00000000     4.64899994
PRIMCOORD
24 1
Ti      4.46081801     6.91427699     2.31329602    -0.63127239     0.72962124     0.20548136
Ti      4.43655200     2.32173402     2.33312001     0.15172137    -0.09540185     0.69680341
Ti      1.47877799     6.99399299     2.34370699     0.87638989     0.49205842     0.00991495
Ti      1.46052598     2.36917899     2.31709699    -0.18482845    -0.68538899     0.23019789
Ti      2.96551899     4.66343902     0.02477999     0.09893969    -0.15550809    -0.17712105
Ti      2.99684401     0.00911598     4.63732899    -0.23858663    -0.64927809    -0.30802367
Ti      0.01629501     4.65358500     0.00428401    -0.19809457    -0.12338214    -0.09311819
Ti      5.92953301     9.27199400     0.05714601     0.18030716    -0.10067904    -0.69122746
O       4.37497403     5.58083901     0.85306199     0.63199230    -0.45311519     0.07498754
O       4.41528098     0.88856301     0.81251097     0.55430022     0.47872236     0.66821659
O       1.50395302     5.57947199     0.91556099    -0.22740670    -0.03462403    -0.13087228
O       1.46521100     0.92516000     0.95644502     0.07324433    -0.43655008    -0.73212550
O       4.46617503     8.34970600     3.63660100    -0.00706899     0.81740876     1.12865660
O       4.47178801     3.69645200     3.66732900    -0.25493809     0.54090837     0.84051682
O       1.46175097     8.36079301     3.72564602    -0.20854174     0.06501808    -0.05311438
O       1.44113402     3.73072999     3.82006802     0.44239523    -0.18568694    -0.66663639
O       2.99698101     6.15090499     3.23647002    -1.06421136    -0.88097751     0.08666421
O       2.99869100     1.39341699     3.26144798    -0.12466461     0.66846650    -0.83013187
O       5.86102900     5.96274798     3.25060800     0.93503678     0.92933818    -0.81533362
O       5.92072998     1.40449601     3.17749697     0.32893832     0.14987172     0.03902036
O       3.01116699     7.87586000     1.36904399    -0.97938164    -0.17502663     0.25707159
O       3.02601300     3.26134299     1.37594102    -0.44401168    -0.34640537     0.36398684
O       5.86637501     7.89422102     1.39245199     0.92954541    -0.39717311     0.14598009
O       0.08513398     3.29553700     1.46427600    -0.63980358    -0.15221656    -0.24979331
