# total energy = -4976.88016932 eV

CRYSTAL
PRIMVEC
        3.78268616     0.00000000     0.00000000
        0.00000000     5.92690211     0.00000000
        0.00000000    -0.00007692     5.92690211
PRIMCOORD
6 1
Ti      1.89134301     2.96341253     2.96345099     0.00000000     0.00000000     0.00000000
Ti      0.00000000     0.00000000     0.00000000     0.00000000     0.00000000     0.00000000
O       1.89134301     1.15505092     1.15506591     0.00000000    -0.96139162    -0.96139162
O       1.89134301     4.77177414     4.77183606     0.00000000     0.96139162     0.96139162
O       0.00000000     1.80833043     4.11851810     0.00000000     0.96208531    -0.96208531
O       0.00000000     4.11849463     1.80838387     0.00000000    -0.96208531     0.96208531
