# total energy = -4977.77899153 eV

CRYSTAL
PRIMVEC
        4.16095502     0.00000000     0.00000000
        0.00000000     2.17319769     0.00000000
        0.00000000    -0.00011462     5.79519301
PRIMCOORD
6 1
Ti      2.08047731     1.08654148     2.89759650     0.00000000     0.00000000     0.00000000
Ti      0.00000000     0.00000000     0.00000000     0.00000000     0.00000000     0.00000000
O       2.08047731     0.42350188     1.12939778     0.00000000    -0.90483736    -0.43451042
O       2.08047731     1.74958114     4.66579528     0.00000000     0.90483736     0.43451042
O       0.00000000     0.66299458     4.02699546    -0.00000000     0.90444706    -0.43394555
O       0.00000000     1.51008843     1.76819755    -0.00000000    -0.90444706     0.43394555
