# total energy = -4943.70441439 eV

CRYSTAL
PRIMVEC
        5.56400572     0.00000000     0.00000000
       -0.00000727     2.38457404     0.00000000
       -2.78203478    -1.19237328     6.03818765
PRIMCOORD
6 1
Ti     -0.00023775     1.78850458     1.50954686    -0.02582443    -0.01990652    47.06034018
Ti      2.78220115    -0.59630376     4.52864068     0.02582443     0.01990652   -47.06034018
O       0.00005912     0.59612890     0.98357142     0.02411978     0.02003944   -40.99568870
O       2.78190412     0.59607186     5.05461618    -0.02411978    -0.02003944    40.99568870
O      -0.00002326    -0.59617206     4.00266525    -0.00144445     0.00014552    -1.30851433
O       2.78198644     1.78837276     2.03552235     0.00144445    -0.00014552     1.30851433
