# total energy = -19059.25085358 eV

CRYSTAL
PRIMVEC
        7.60600008     0.00000000     0.00000000
        0.00000000     7.60600008     0.00000000
       -1.89786986    -1.89786986     4.85670466
PRIMCOORD
22 1
Ti      4.04685598     6.69238699     1.59616200     1.25055342    -1.59436146    -2.99161385
Ti      4.09447098     2.77069498     1.81544802    -3.16639879     0.54789046    -1.74076913
Ti      0.28629802     6.41264601     1.17676198    -3.63984345    -2.20852778    -1.82256315
Ti      0.27622698     2.35661500     0.51354901     0.41091823     2.79511953     0.87685192
Ti      6.14761521     2.50651821     3.69199781    -4.34932651     9.02455667     5.96541509
Ti     -0.59695480     1.11477723     2.57698182    -0.19516711    -7.59471554    -4.07383862
Ti      1.11205123     2.77561723     4.27472579     5.30960691     0.55197234     1.00928306
Ti      0.91236323    -0.49834379     4.09843981    -0.17286150     0.15483986     1.92708161
O       3.60086301     4.50146501     1.28250398     0.22116201     2.19595663     2.63998734
O       3.33450498     0.95223700     0.95179498     1.14481625     0.58849925     3.52452429
O       0.08907598     4.30398802     0.90201702     1.99432062     0.96292143    -0.86249204
O       7.30221302     0.67896299     0.63535502     1.22127060    -1.92647226     2.16213581
O       5.71988224     4.16138623     4.13933780     0.44977173     2.47901925     0.54099116
O       5.39135720     0.91042422     3.73710880    -5.46704795     0.92210695    -2.62457485
O       1.42132924     4.65683023     4.78054881    -0.48707716    -1.42562144     0.33625260
O       1.89548222     1.14328523     4.52359981    -0.47641119    -3.86657755     0.12459571
O       2.79768524     2.62101423     3.15576779     1.65521229     1.47064404    -1.79517163
O       0.11728420     2.81948020     2.73945881     5.01816274     0.66333792     0.41662557
O       5.88548302     6.45528299     1.30881198    -2.55597754     0.35187385     0.83535841
O       6.05395999     2.64432200     1.66133901    -5.35317401    -1.54870688    -1.36132095
O       1.55826322     6.32190423     2.74275183     1.99093164    -0.49464546    -4.11867122
O      -0.94911776    -0.58994177     3.58712081     5.19655854    -2.04910956     1.03191315
