# total energy = -19938.64883685 eV

CRYSTAL
PRIMVEC
        5.83247488     0.00000000     0.00000000
        2.38753389     5.73000417     0.00000000
        0.00000000     0.00000000    10.66262739
PRIMCOORD
24 1
Ti      3.52884204     3.39559527     3.95575871     0.72334518    -2.88993851     0.90527753
Ti      4.69116682     2.33440906     6.70686880    -0.72334518     2.88993851    -0.90527753
Ti      6.00281723     2.33441101     1.37551242    -1.89619031    -0.81391155     0.58610787
Ti      2.21719168     3.39559355     9.28711515     1.89619031     0.81391155    -0.58610787
Ti      2.33507521     0.53059316     1.37555516     0.72334518    -2.88993851    -0.90527753
Ti      5.88493369     5.19941134     9.28707241    -0.72334518     2.88993851     0.90527753
Ti      1.02342471     0.53059105     6.70682600     1.89619031     0.81391155     0.58610787
Ti      7.19658418     5.19941344     3.95580146    -1.89619031    -0.81391155    -0.58610787
O       2.68670638     2.01763193     5.44105716     1.58665689     2.05935618    -0.97340768
O       5.53330242     3.71237240     5.22157035    -1.58665689    -2.05935618     0.97340768
O       1.91095735     2.01765509     0.10977773     0.13152200    -0.83015604     1.30346057
O       6.30905159     3.71234934    10.55284943    -0.13152200     0.83015604    -1.30346057
O       4.33953557     0.84737018     0.10974311    -1.58665689    -2.05935618    -0.97340768
O       3.88047329     4.88263414    10.55288405     1.58665689     2.05935618     0.97340768
O       5.11528467     0.84734708     5.44109172    -0.13152200     0.83015604     1.30346057
O       3.10472409     4.88265733     5.22153573     0.13152200    -0.83015604    -1.30346057
O       1.66414078     3.48531352     2.88024169     0.56556089     2.09882674     1.97582024
O       6.55586802     2.24469082     7.78238582    -0.56556089    -2.09882674    -1.97582024
O       4.06343453     2.24463750     2.45110598     1.12785673     1.46302021     0.72181434
O       4.15657428     3.48536684     8.21152135    -1.12785673    -1.46302021    -0.72181434
O       0.47037392     0.62031124     2.45107189     0.56556089     2.09882674    -1.97582024
O       7.74963494     5.10969309     8.21155538    -0.56556089    -2.09882674     1.97582024
O       2.96280743     0.62036462     7.78241980    -1.12785673    -1.46302021     0.72181434
O       5.25720138     5.10963972     2.88020766     1.12785673     1.46302021    -0.72181434
