# total energy = -4986.91224602 eV

CRYSTAL
PRIMVEC
        2.99683990     0.00000000     0.00000000
        1.59462409     4.41653963     0.00000000
       -0.00001036    -0.00006222     4.77143301
PRIMCOORD
6 1
Ti      2.29572681     2.20823865     2.38571650     0.00000000     0.00000000     0.00000000
Ti      0.00000000     0.00000000     0.00000000     0.00000000     0.00000000     0.00000000
O       1.80918665     0.86070639     0.92988203    -2.63134766     1.33274236     1.36866223
O       2.78226696     3.55577092     3.84155103     2.63134766    -1.33274236    -1.36866223
O       0.48653580     1.34750711     3.31559948     2.63118156    -1.33239886     1.36801431
O       1.10807802     3.06897017     1.45583358    -2.63118156     1.33239886    -1.36801431
