# total energy = -19075.72986172 eV

CRYSTAL
PRIMVEC
        7.60600008     0.00000000     0.00000000
        0.00000000     7.60600008     0.00000000
       -1.89786986    -1.89786986     4.85670466
PRIMCOORD
22 1
Ti      3.69483399     6.66903302     1.34440401    -0.95628592    -0.78487401    -0.79183399
Ti      3.86144000     2.90296998     1.22701001     0.03576689     0.78688641     0.65836412
Ti      0.03092602     6.60389400     0.97269399     0.65628949    -0.31408968     1.84962402
Ti      0.09497800     2.81098400     1.09822599     0.33701081     0.16101437    -0.41654612
Ti      5.79197423     2.84771620     3.47149283    -0.26278895    -0.20015840     0.56530686
Ti      5.92878221    -0.93007976     3.51849583     0.19838099     0.35153164     1.34066625
Ti      1.88833822     2.89904322     3.65453682     0.42288518    -1.43029082     0.00402995
Ti      1.40619721    -1.00402678     4.04548382     0.49290868     1.75370409    -3.09680440
O       3.53849799     4.67475701     0.89591698     0.60478179     2.55452152    -0.44883842
O       3.98215998     1.04903802     0.91809300    -0.45653810    -2.24239977     0.80169700
O       0.23337002     4.69476499     0.68765599    -0.21768047     0.76789033     0.03721853
O      -0.04194502     0.88787301     0.59231101     0.03949756     0.74621412     1.17229389
O       5.72586025     4.75201123     3.99306379     0.22896453     0.02360248    -1.73493786
O       5.67352520     0.99666921     3.94269283     0.44576543    -1.44203228    -0.59970515
O       1.76311424     4.80896425     4.23312880     0.08147392    -0.63850157    -0.11272672
O       1.94786722     1.00131120     4.14429683    -0.30110483    -0.51591827    -0.77564915
O       3.91583725     2.97654620     3.23721383    -0.96390462    -0.06536184    -0.10818255
O       0.08951822     2.82854024     3.13511882    -0.13337551     0.23665496     0.27489808
O       5.59876500     6.49481300     1.70771198     0.77916436     0.12655514    -0.50670189
O       5.86735399     2.92971602     1.47936998    -1.19331241     0.02027187     0.86252033
O       1.83359102     6.66687001     1.92091400    -0.28982771     0.19398826     0.61945663
O       1.93534498     2.69995102     1.63514199     0.45192914    -0.08920857     0.40585084
