# total energy = -19073.74932924 eV

CRYSTAL
PRIMVEC
        5.93400000     0.00000000     0.00000000
        0.00000000     9.29699974     0.00000000
        0.00000000     0.00000000     4.64899994
PRIMCOORD
22 1
Ti      4.41102899     6.82939500     2.44915402     0.63375634    -0.31904368    -0.14473079
Ti      4.37159999     2.45903599     2.18265798     0.12655540    -0.71094191     1.30912445
Ti      1.58574303     7.28350200     2.56374201    -0.44621281    -0.35192939     0.24975988
Ti      1.52983598     2.32975899     2.01100002    -0.01863459     0.04880958     1.42538233
Ti      2.99978401     4.61040599     4.55926498    -0.05073508     0.43016423     0.15225770
Ti      3.02097301     0.13179101     0.15385199     0.74883742    -0.43810251    -1.09196077
Ti      5.81890099     4.53113000     4.38942400     0.43245380     0.38806831    -0.03845395
Ti      5.85422198     8.99110100     0.23144699     0.53447315    -1.52562119    -0.92799992
O       4.47122301     5.49650398     0.90253101    -0.55885725    -0.14479996     0.76744193
O       4.66598500     0.77425299     1.04449498    -0.42112166     1.37244869     0.35657923
O       1.49822002     0.54099902     1.15918901    -1.25306899     2.29604097     0.50834096
O       4.31545698     8.15248498     3.94716899     0.90909382     2.27291286     0.03926564
O       4.29491602     4.09895401     3.37247201     0.94427655    -1.76809199    -0.76110287
O       1.59586597     8.60674099     3.74519902    -0.97320636     0.53365554     0.20586034
O       1.50314502     3.93148301     3.51360099    -0.54621950    -0.39966785     0.19327452
O       2.86069501     6.17669201     3.48188999    -0.69408653     0.34135058    -1.04867135
O       2.92673400     1.60717698     3.21776599     0.39973059    -0.60353301     0.64430378
O       0.11510902     6.30986201     3.52262998     0.07772705    -1.23335993    -0.52027886
O       3.11956498     8.00442197     1.57453198    -0.25819362    -1.40791939     0.22608413
O       3.03130599     2.95702998     1.05389200    -0.86039891     1.22551292    -1.11515856
O       0.03291202     7.61955798     1.42819600     0.27559614     0.04994755     0.06899224
O       5.84422402     3.19458099     1.23277799     0.99823554    -0.05590043    -0.49831032
