# total energy = -19073.86527142 eV

CRYSTAL
PRIMVEC
        5.93400000     0.00000000     0.00000000
        0.00000000     9.29699974     0.00000000
        0.00000000     0.00000000     4.64899994
PRIMCOORD
22 1
Ti      4.40165001     6.72524202     2.21657898    -1.63827386    -0.88411426     0.48066637
Ti      4.38325703     2.48579399     2.08593898     0.09808222    -0.82244504    -0.26185076
Ti      1.46755298     7.25938401     2.68018101     1.22232038    -0.08564194     0.52310193
Ti      1.54525297     2.36913898     2.15324800     0.13292505     0.22448413     0.61353255
Ti      3.05563402     4.54036800     4.44271401     0.91118567     0.26447945     0.06789540
Ti      3.03340799     0.22678902     4.57563402     1.18236131     1.07032108     0.62364264
Ti      5.87337201     4.51794301     4.39915399    -0.58616032    -0.71896196    -0.19279630
Ti      5.90954498     9.13902700     0.41194401    -1.37910322     0.44594490     0.88579859
O       4.46217900     5.25114502     1.01784000    -0.08079720     0.88353962    -0.08731007
O       4.25953300     0.63985901     1.31123698     1.93880379     1.09967177    -0.36363717
O       1.50192902     0.66884200     1.35024999    -0.59078033     0.42609957    -0.04099317
O       4.48722400     8.51498499     4.00136600    -0.06355204     0.31894238    -1.35054854
O       4.39017702     4.02122702     3.22183499     0.66821376    -0.22243290     0.89836332
O       1.54168002     8.51716002     4.07147801    -1.03768348    -0.68534940    -1.94391618
O       1.54858700     3.90373899     3.53278801    -1.04835999    -0.30442515    -0.63685940
O       2.93285500     6.21370500     3.54292498    -0.63655627     0.20291694    -0.60961367
O       3.12002499     1.80142101     3.30911299    -0.42613454    -1.83736371     0.79911356
O       5.89867599     6.26737802     3.44351501     0.69456578    -1.04771259     0.43691492
O       2.94287799     7.72329598     1.51029198    -0.47656366    -0.76417842     0.59976763
O       2.93464198     2.90411300     0.92503798    -0.01196360     1.30401876     0.47621399
O       5.83638500     7.65912398     1.51621702     1.48982602     0.72660919    -0.60842402
O       0.12046699     3.09284200     1.11306899    -0.36235573     0.40559759    -0.30906137
