# total energy = -19072.98281523 eV

CRYSTAL
PRIMVEC
        5.17600016     0.00000000     0.00000000
        0.00000000     5.50899976     0.00000000
        0.00000000     0.00000000     9.26300011
PRIMCOORD
22 1
Ti      1.67903602     3.48472199     3.50521200     0.59296654    -1.32751376     0.20695048
Ti      3.76891902     2.35291399     6.01333399    -0.13467392     0.56451676    -0.76619057
Ti      4.34037700     2.19406000     1.18901302    -0.54298119     0.46180912     1.14933985
Ti      1.30409002     2.74389803     7.82542999    -1.03522242     0.70046955    -1.91505630
Ti      1.72866200     0.65393100     1.56425901     1.17092324     1.50518580     0.83211214
Ti      3.06972198     5.44866302     7.88622002     2.30119938     0.55987103    -0.14680413
Ti      0.53242000     5.48300901     6.22068897    -0.26966948    -0.32462863    -0.75892746
Ti      4.40238699     5.05397601     3.55047502    -0.44786371    -0.54443772     0.24239341
O       3.38460801     3.69703701     4.63281702     0.33889980    -0.78255025     0.95531790
O       0.80443599     2.11479698     0.23424502     0.38779552     0.27618518    -0.13413373
O       0.00119700     3.54446002     6.45626302     1.43734130    -0.15914620    -0.00565026
O       3.25737400     0.76614002     0.33924199    -0.54951745    -0.24034707    -0.93067798
O       1.41489699     4.84843600     7.84196800    -2.97503640    -0.74135293     1.44442469
O       4.41265198     0.95884298     4.86183498    -0.01686182    -0.49352626     0.21840758
O       1.18561401     4.96135301     4.39341998    -2.52258764     1.05721821     2.20154929
O       5.13749399     3.43971600     2.63803300    -0.15824786     0.36154326    -0.74201525
O       4.61867899     1.11348397     7.38609201     0.25801930    -0.18691798    -0.64709368
O       2.60129502     1.99993599     2.57133502    -0.21539425    -0.91974282    -1.05363281
O       3.05085401     3.29198902     7.56311799     0.73611199     0.60560918     1.45284840
O       5.14025900     0.91645102     2.15522400    -0.16090381    -2.48244885     1.44889302
O       2.06930001     1.26845401     6.55535501    -0.03421111     0.22823434     0.15058545
O       2.51095198     4.67902202     2.52093898     1.83991399     1.88197056    -3.20264030
