# total energy = -19948.66004839 eV

CRYSTAL
PRIMVEC
        6.00516702     0.00000000     0.00000000
        0.00002989     5.78261699     0.00000000
        0.00000000     0.00000000    10.26177642
PRIMCOORD
24 1
Ti      2.17660196     3.42677342     3.80704595     0.11570328    -0.54830286     0.41558067
Ti      3.82859495     2.35584345     6.45473082    -0.11570328     0.54830286    -0.41558067
Ti      5.17908081     2.35584544     1.32380144     0.11717010     0.54856460    -0.41575448
Ti      0.82611616     3.42677172     8.93797551    -0.11717010    -0.54856460     0.41575448
Ti      2.17658707     0.53546504     1.32384261     0.11570328    -0.54830286    -0.41558067
Ti      3.82860989     5.24715200     8.93793434    -0.11570328     0.54830286     0.41558067
Ti      0.82610121     0.53546294     6.45468971    -0.11717010    -0.54856460    -0.41575448
Ti      5.17909569     5.24715417     3.80708712     0.11717010     0.54856460     0.41575448
O       1.90068382     2.03615767     5.23650609     0.99262925     0.97649532    -0.20262100
O       4.10451315     3.74645920     5.02527068    -0.99262925    -0.97649532     0.20262100
O       1.10195593     2.03618106     0.10565074    -0.99274906     0.97684010    -0.20318973
O       4.90324109     3.74643587    10.15612580     0.99274906    -0.97684010     0.20318973
O       4.10449820     0.85515064     0.10561747    -0.99262925    -0.97649532    -0.20262100
O       1.90069876     4.92746622    10.15615907     0.99262925     0.97649532     0.20262100
O       4.90322615     0.85512732     5.23653942     0.99274906    -0.97684010    -0.20318973
O       1.10197070     4.92748961     5.02523741    -0.99274906     0.97684010     0.20318973
O       0.21819989     3.51731547     2.77196189    -0.04923356    -0.13416587     0.17039324
O       5.78699708     2.26530146     7.48981489     0.04923356     0.13416587    -0.17039324
O       3.22078871     2.26524764     2.35895913    -0.04919551     0.13441424    -0.17056550
O       2.78440819     3.51736929     7.90281753     0.04919551    -0.13441424     0.17056550
O       0.21818494     0.62600692     2.35892632    -0.04923356    -0.13416587    -0.17039324
O       5.78701196     5.15661001     7.90285028     0.04923356     0.13416587     0.17039324
O       2.78439331     0.62606074     7.48984763     0.04919551    -0.13441424    -0.17056550
O       3.22080366     5.15655613     2.77192914    -0.04919551     0.13441424     0.17056550
