# total energy = -19926.31373236 eV

CRYSTAL
PRIMVEC
        6.20188695     0.00000000     0.00000000
        1.93666172     6.31017896     0.00000000
        0.00000000     0.00000000    11.22987116
PRIMCOORD
24 1
Ti      3.39554963     3.73940624     4.16620211    -0.08689072    -2.13974998     0.76805822
Ti      4.74299893     2.57077286     7.06366912     0.08689072     2.13974998    -0.76805822
Ti      6.13772527     2.57077503     1.44868864    -0.24568648    -0.71934968     0.00324242
Ti      2.00082339     3.73940431     9.78118271     0.24568648     0.71934968    -0.00324242
Ti      2.42721892     0.58431686     1.44873366    -0.08689072    -2.13974998    -0.76805822
Ti      5.71132967     5.72586243     9.78113769     0.08689072     2.13974998     0.76805822
Ti      1.03249255     0.58431451     7.06362409     0.24568648     0.71934968     0.00324242
Ti      7.10605604     5.72586478     4.16624713    -0.24568648    -0.71934968    -0.00324242
O       2.64486786     2.22192133     5.73051730     1.81579780     2.08802759    -0.71804407
O       5.49368071     4.08825784     5.49935393    -1.81579780    -2.08802759     0.71804407
O       1.81998268     2.22194679     0.11561784    -0.55539346    -0.19791408     1.16677348
O       6.31856597     4.08823243    11.11425307     0.55539346     0.19791408    -1.16677348
O       4.52534997     0.93316828     0.11558141    -1.81579780    -2.08802759    -0.71804407
O       3.61319860     5.37701089    11.11428951     1.81579780     2.08802759     0.71804407
O       5.35023522     0.93314287     5.73055373     0.55539346     0.19791408     1.16677348
O       2.78831330     5.37703637     5.49931749    -0.55539346    -0.19791408    -1.16677348
O       1.40331634     3.83820860     3.03346836     0.52276743     1.93372098     1.93452162
O       6.73523223     2.47197057     8.19640286    -0.52276743    -1.93372098    -1.93452162
O       4.08494088     2.47191173     2.58150296     0.76911109     1.74298233     0.94293778
O       4.05360769     3.83826744     8.64836808    -0.76911109    -1.74298233    -0.94293778
O       0.43498554     0.68311905     2.58146709     0.52276743     1.93372098    -1.93452162
O       7.70356297     5.62706013     8.64840394    -0.52276743    -1.93372098     1.93452162
O       3.08527695     0.68317788     8.19643867    -0.76911109    -1.74298233     0.94293778
O       5.05327162     5.62700129     3.03343249     0.76911109     1.74298233    -0.94293778
