# total energy = -4990.26113322 eV

CRYSTAL
PRIMVEC
        3.71270148     0.00000000     0.00000000
        0.37033567     3.69418513     0.00000000
       -2.04155151    -1.84712236     4.74418198
PRIMCOORD
6 1
Ti      0.27760949     2.77077938     1.18604526     0.00143828    -0.00143828     0.00000000
Ti      1.76387583    -0.92371690     3.55813615    -0.00143828     0.00143828     0.00000000
O       0.09262306     0.92354044     0.77278840    -0.00013164     0.00031650     0.31576784
O       1.94886216     0.92352194     3.97139312     0.00013164    -0.00031650    -0.31576784
O      -0.09260251    -0.92352185     3.14487929     0.00031650    -0.00013164     0.31576784
O       2.13408767     2.77058418     1.59930223    -0.00031650     0.00013164    -0.31576784
