# total energy = -19900.11720922 eV

CRYSTAL
PRIMVEC
        7.70798935     0.00000000     0.00000000
        0.00003256     6.06355384     0.00000000
        0.00000000     0.00000000    12.27230646
PRIMCOORD
24 1
Ti      2.79379473     3.59325644     4.55293817     0.49678617    -0.86621629     1.27787808
Ti      4.91422726     2.47029761     7.71936836    -0.49678617     0.86621629    -1.27787808
Ti      6.64765628     2.47029972     1.58316606     0.49687435     0.86667497    -1.27871703
Ti      1.06036570     3.59325461    10.68914060    -0.49687435    -0.86667497     1.27871703
Ti      2.79377858     0.56147966     1.58321527     0.49678617    -0.86621629    -1.27787808
Ti      4.91424340     5.50207460    10.68909140    -0.49678617     0.86621629     1.27787808
Ti      1.06034956     0.56147734     7.71931916    -0.49687435    -0.86667497    -1.27871703
Ti      6.64767242     5.50207691     4.55298737     0.49687435     0.86667497     1.27871703
O       2.43963880     2.13508043     6.26246405     0.75196234     1.49152758    -1.30817880
O       5.26838325     3.92847362     6.00984248    -0.75196234    -1.49152758     1.30817880
O       1.41442394     2.13510489     0.12635030    -0.75168620     1.49220789    -1.30920596
O       6.29359818     3.92844923    12.14595589     0.75168620    -1.49220789     1.30920596
O       5.26836710     0.89669663     0.12631048    -0.75196234    -1.49152758    -1.30817880
O       2.43965495     5.16685742    12.14599571     0.75196234     1.49152758     1.30817880
O       6.29358203     0.89667224     6.26250387     0.75168620    -1.49220789    -1.30920596
O       1.41443995     5.16688188     6.00980266    -0.75168620     1.49220789     1.30920596
O       0.28006890     3.68819716     3.31505614    -1.39762186     0.30707391    -0.01310775
O       7.42795315     2.37535689     8.95725039     1.39762186    -0.30707391     0.01310775
O       4.13407188     2.37530033     2.82113615    -1.39792833    -0.30698032     0.01292288
O       3.57395017     3.68825379     9.45117018     1.39792833     0.30698032    -0.01292288
O       0.28005276     0.65642024     2.82109695    -1.39762186     0.30707391     0.01310775
O       7.42796929     5.40713388     9.45120937     1.39762186    -0.30707391    -0.01310775
O       3.57393402     0.65647680     8.95728952     1.39792833     0.30698032     0.01292288
O       4.13408803     5.40707725     3.31501695    -1.39792833    -0.30698032    -0.01292288
