# total energy = -19519.68554872 eV

CRYSTAL
PRIMVEC
        5.17575250     0.00001323     0.00000000
        0.00001429     5.50856584     0.00000000
        0.00000000     0.00000000     9.26345890
PRIMCOORD
23 1
Ti      1.88311900     3.26414478     3.44109854     0.01774293     0.07988600    -0.14607317
Ti      3.29764614     2.24393852     5.82690986     0.04663803     0.00371267    -0.10427370
Ti      4.48712552     2.18897043     1.24037062     0.19583817    -0.63633156     0.34319483
Ti      0.73600397     3.25203729     8.03092925     0.16614938     0.05930586    -0.20554769
Ti      1.86530195     0.52655214     1.19744788     0.09992159     0.12895244    -0.27210663
Ti      3.26505249     5.01896122     8.03727090    -0.20670366     0.27566041    -0.01904134
Ti      0.71133954     0.51180155     5.82416518    -0.20178436    -0.08821561    -0.03483126
Ti      4.46091817     4.99649106     3.44289604    -0.14469917    -0.21684692    -0.01016280
O       1.63446772     1.93887281     4.72659568    -0.06150698    -0.03522824     0.05175350
O       3.53517369     3.57197894     4.53199871    -0.03212415     0.03288828    -0.03320787
O       0.91774238     1.97000048     0.08628591    -0.17236939     0.08952790    -0.02418201
O       3.55287826     0.81774344     0.09459624     0.01628743    -0.01199471    -0.02294659
O       1.64668146     4.68086177     9.17825694     0.11967076    -0.04055814     0.17508499
O       4.22876053     0.81568237     4.72860262     0.05397647     0.04924153     0.07791397
O       0.94988760     4.69320233     4.53699311    -0.00931845     0.00811003     0.08963075
O       0.17599017     3.35919998     2.47982609     0.01151778     0.23870645    -0.04467062
O       4.98769382     2.15779635     6.76919820    -0.01807281    -0.16486228    -0.03849097
O       2.76807061     2.16925637     2.12087495    -0.19737518     0.09107674    -0.03632893
O       2.43380653     3.35728902     7.14428741     0.41290929     0.00141668     0.03554320
O       0.18447812     0.60388255     2.12513414    -0.07658394     0.03506857     0.12020863
O       4.97556704     4.88709497     7.17403142    -0.00573022    -0.13674751     0.27831456
O       2.40597802     0.59797893     6.75754789    -0.05874767     0.16720533    -0.15538339
O       2.77950513     4.91031786     2.49810541     0.04436389     0.07002608    -0.02439824
