# total energy = -4985.81832994 eV

CRYSTAL
PRIMVEC
        4.31657322     0.00000000     0.00000000
       -0.00000961     4.31657322     0.00000000
       -2.15832046    -2.15832527     5.50890745
PRIMCOORD
6 1
Ti     -0.00019009     3.23759341     1.37722671    -0.00174655     0.00174655     0.00000000
Ti      2.15843312    -1.07934558     4.13168038     0.00174655    -0.00174655     0.00000000
O       0.00004312     1.07913597     0.89735595    -0.00032062    -0.00221526    -1.17771352
O       2.15819979     1.07911174     4.61155120     0.00032062     0.00221526     1.17771352
O      -0.00002438    -1.07911723     3.65180961    -0.00221526    -0.00032062    -1.17771352
O       2.15826723     3.23736489     1.85709754     0.00221526     0.00032062     1.17771352
