# total energy = -39032.30566796 eV

CRYSTAL
PRIMVEC
        5.93200024     0.00000000     0.00000000
        0.00000000     9.29399984     0.00000000
        0.00000000     0.00000000     9.29399984
PRIMCOORD
46 1
Ti      4.39492702     6.85289698     6.93531898     1.09892847     0.01223228     0.91494411
Ti      4.57780502     6.95340298     2.35955601    -0.54959947     0.37457310    -0.22658781
Ti      4.40310900     2.46325199     6.88458300     0.82218125     0.06409531    -0.12953917
Ti      4.22528799     2.43903600     1.94662201     1.09211375    -0.33548306     0.43881008
Ti      1.48900302     7.07706398     6.90492998    -1.13999157    -1.19452340    -0.45044664
Ti      1.54612501     6.96470801     2.29397602     0.49580426     0.18444844     0.40286013
Ti      1.47876598     2.33050301     7.14778698    -0.83649124     0.12831609    -0.96313869
Ti      1.15813098     2.04268398     2.59893801     1.71074969     1.32824318    -1.02388745
Ti      3.15090100     4.73185302     4.64765599    -1.24416731    -0.61659885    -0.28893760
Ti      2.95634401     4.72243900     9.15759699    -0.55526053     0.83319251    -0.20059729
Ti      2.91086202     9.27962199     4.66915398    -0.21114755    -0.68145855     0.62297673
Ti      2.90246699     0.04580198     0.07716902    -0.23527840    -0.68479044    -0.50420612
Ti      0.15548699     4.65614299     4.61787099     1.13692398    -0.87207455     0.45621311
Ti      5.88061999     4.65499600     0.05349903     0.46039013     0.72716584    -0.70425241
Ti      5.87311398     9.22412399     4.89267501     0.66402029    -0.05635140    -0.36651989
Ti      5.90571199     9.07995299     9.09309098    -0.48466855     0.05554510    -0.04664523
O       4.64368198     5.58518298     5.49857597    -0.89171367     0.84357026     0.77941479
O       4.56595103     5.85479302     0.72213898    -0.27889923    -1.46222342     0.93634084
O       4.36746997     0.79667402     5.66450199    -0.32472608     1.80143176    -0.38603637
O       4.38804402     0.66051502     0.90127802     1.16385527     2.22335586     0.67826292
O       1.70170502     5.76386100     5.41184800     0.08255378    -0.93102457     0.52600702
O       1.40764699     5.53495400     0.91036802     0.65269946     0.08386170     0.94523403
O       1.46846099     0.85301902     5.81842801     0.61391539     0.34353396    -1.64210763
O       1.45746501     0.85935300     0.86176298    -0.26637281    -0.03708278     0.51164715
O       4.42669200     8.22624398     8.34071401     0.18892627     1.25290238     1.11458726
O       4.56142698     8.40088501     3.85688902    -1.34299927    -0.07856729    -1.33374740
O       4.41185900     3.99802001     8.13232798     0.10676664    -1.03883508     1.57673011
O       4.66680702     3.71347098     3.87098900    -0.57479038    -0.99516307    -2.08903263
O       1.58259299     8.11716499     8.43278202    -0.57950758     2.52213847     0.85829986
O       1.35422898     7.99562398     4.10946701     1.35542875     2.40690389    -1.53018516
O       1.48297400     4.01756501     8.29748700     0.20915983    -1.96710059     0.18898155
O       1.75061100     3.75613902     3.78011598    -1.71507917    -0.89873536    -0.87824391
O       2.93787700     6.07296401     7.90620303     0.18021666     0.75741822    -1.08503988
O       3.14414801     5.96203100     3.05498302    -0.13866530     0.03744685     0.45521398
O       2.96944300     1.61512300     8.02904502     0.31273419    -0.43881497     0.09329791
O       2.91746599     1.56110702     2.93672302     0.00474806    -0.91154948     1.22379388
O       0.05866200     6.04472902     7.80446499    -0.13817062     0.38668069    -0.57861001
O       0.03659800     6.06741199     3.36259699    -0.55321007     0.58114589    -2.34795490
O       5.87912898     1.51367099     7.91543098     0.25139408    -0.54351470     0.52580545
O       3.01063299     7.98298299     6.10957302     0.45264262    -0.62465849    -0.08861002
O       2.93243700     7.88305898     1.46615098     0.08368327     0.14984755     0.59964756
O       2.95627601     3.21438301     6.02350002     0.05133672     0.25397469     0.06012424
O       5.83678898     8.09048398     6.28764598     0.54004448    -1.58604394     0.71481554
O       0.12379499     7.96536102     1.34685098    -0.08656650    -1.07204320     1.43533738
O       0.04784900     3.35461800     6.10671197     0.11578325    -0.93130173     0.16863383
O       0.12056002     2.99552101     1.32998198    -1.69969548     0.60591359     0.63634698
