# total energy = -39040.41154339 eV

CRYSTAL
PRIMVEC
        7.60629642    -0.00000847    -0.00005503
       -0.00000847     7.60629642    -0.00005503
       -3.80314186    -3.80314186     9.70738094
PRIMCOORD
46 1
Ti      1.90144488     4.75414526     6.08732276    -0.00004397     0.00022677     0.13456233
Ti      3.79448688     6.65564620     1.23425744    -0.04400522    -0.00027459    -0.10812110
Ti      1.90146863     0.95099709     6.08733649    -0.00004937     0.00022549     0.13421035
Ti      3.79449112     2.85249757     1.23428493    -0.04400496    -0.00004217    -0.10812110
Ti     -1.90161800     4.75399495     5.93371743     0.00010953    -0.00056796     0.16885161
Ti      0.00831121     6.65566869     1.23427971     0.04455775    -0.00044454    -0.10849159
Ti     -1.90163717     0.95084671     5.93383762     0.00010156    -0.00056719     0.16813478
Ti      0.00831541     2.85249448     1.23430738     0.04455698     0.00036253    -0.10849211
Ti      3.70674705     0.95069289     8.52736773     0.33559516     0.00017149    -0.06772597
Ti      5.70488576     2.85222111     3.62995553    -0.00004448     0.00054045    -0.22369891
Ti      3.70673244    -2.85245530     8.52740002     0.33611093     0.00017201    -0.06811292
Ti      5.70489010    -0.95087011     3.62998293    -0.00004397     0.00013704    -0.22369917
Ti      0.09641651     0.95068218     8.52742731    -0.33544373     0.00025223    -0.06785658
Ti      1.90172842     2.85221514     3.64198296     0.00015761     0.00003034     0.09845272
Ti      0.09648802    -2.85246607     8.52749203    -0.33634875     0.00025300    -0.06823736
Ti      1.90173268    -0.95094244     3.64201043     0.00015761    -0.00002031     0.09845323
O       1.90158296     2.85236242     5.69372560     0.00009333    -0.00093614     0.04745384
O       3.77302006     4.75393266     0.78380928     0.06216467    -0.00001748     0.10336841
O       1.90158719    -0.95082677     5.69375304     0.00009385     0.00086389     0.04745410
O       3.77302902     0.95078444     0.78384144     0.06222355    -0.00001877     0.10288967
O      -1.90151038     2.85235974     5.63601915     0.00005811    -0.00017406    -0.34049955
O       0.03019364     4.75393593     0.78390925    -0.06262618    -0.00000129     0.10245413
O      -1.90150610    -0.95076468     5.63604662     0.00005734    -0.00051319    -0.34049980
O       0.03020535     0.95078775     0.78393820    -0.06269535    -0.00000231     0.10158509
O       3.94025187     2.85230638     8.85894767     0.17764273     0.00129738     0.14888081
O       5.70466308     4.75391724     4.01387774     0.00007585     0.00007559    -0.14521082
O       3.94025601    -0.95079339     8.85897530     0.17764273    -0.00094462     0.14887901
O       5.70466323     0.95076901     4.01392096     0.00003985     0.00007533    -0.14529695
O      -0.13706226     2.85233013     8.85892181    -0.17764144     0.00063506     0.14921428
O       1.90151712     4.75392794     4.08799160     0.00025223    -0.00009822     0.06319157
O      -0.13705794    -0.95081357     8.85894944    -0.17764170    -0.00028308     0.14921326
O       1.90151575     0.95077970     4.08801762     0.00027614    -0.00009590     0.06397421
O       1.90161305     0.95083795     8.07470784    -0.00120662    -0.00006402     0.27669091
O       3.80709997     2.85240503     3.21808692    -0.06125938    -0.00013730    -0.00167687
O       1.90162012    -2.85231034     8.07474497    -0.00041780    -0.00006531     0.27774172
O       3.80710423    -0.95073440     3.21811443    -0.06125758     0.00002571    -0.00167867
O      -0.00393429     2.85241050     3.21812453     0.06135811    -0.00012933    -0.00175349
O      -0.00392996    -0.95072112     3.21815201     0.06135734     0.00003111    -0.00175349
O       3.91080617     4.75385888     6.55757569    -0.15264748    -0.00006531    -0.13049588
O       5.70471684     6.65548593     1.60593942    -0.00000797     0.00015118    -0.11901152
O       3.91074375     0.95071053     6.55758466    -0.15307171    -0.00006402    -0.13091908
O       5.70472098     2.85230365     1.60596701    -0.00000720     0.00001491    -0.11901152
O      -0.10764191     4.75387270     6.55762266     0.15258269    -0.00004988    -0.13133868
O       1.90156611     6.65547727     1.65016009    -0.00008716     0.00012496     0.15372092
O      -0.10764143     0.95072445     6.55764403     0.15337176    -0.00004962    -0.13139628
O       1.90157028     2.85229278     1.65018768    -0.00008587    -0.00003934     0.15372194
