# total energy = -19960.56970434 eV

CRYSTAL
PRIMVEC
        7.60600008     0.00000000     0.00000000
        0.00000000     7.60600008     0.00000000
       -1.89786986    -1.89786986     4.85670466
PRIMCOORD
24 1
Ti      3.82668702     6.67652300     1.20648100    -1.16176702    -1.67686999    -1.17814855
Ti      3.77975101     2.66793802     1.26140701    -0.15023373     2.08269666    -2.35272893
Ti     -0.10127601     6.72965599     1.22628303     1.65152944    -0.19793516     0.26536391
Ti     -0.03311099     2.86426802     1.23861000     0.14592764     0.09457678     0.93021801
Ti      5.62265322     2.91088425     3.62869382     2.28167518     0.43002179     0.91718509
Ti      5.61638824    -0.83065477     3.58645283     1.81251347    -0.47774791     1.45122449
Ti      2.06114523     2.71951020     3.62322879    -3.51890154    -0.06383974     1.58212737
Ti      1.99374720    -1.01998576     3.60468880    -1.86490178     0.41821117    -0.69657895
O       3.88271202     4.65767898     0.72075402    -0.28039073     0.44393918     0.29729137
O       3.91497300     0.90209798     0.78184600    -0.28489196     0.00220035    -0.41217961
O      -0.10934898     4.81474302     0.84843798     0.26971036     0.12812609    -0.24161282
O      -0.03244698     0.92892701     0.86529799    -0.11395108     1.71625519    -0.65038264
O       5.43907020     4.91810923     4.07097281     0.49938478    -1.54620108    -0.45630105
O       5.58239622     1.06199524     4.17318683    -0.09721473    -0.98573741    -0.80817618
O       2.17733424     4.72591623     4.08327883    -0.57996678     0.10100557    -0.43067511
O       2.17053024     0.88807521     3.98013080    -1.09503221    -0.15095621     0.74677848
O       3.77650721     2.65179224     3.14158579     1.14282673     0.62243577     0.31202148
O       3.75917522    -0.84641076     3.18058081     1.52103640    -0.20840753    -0.24226280
O      -0.04405877     2.81904622     3.25331580    -0.04801434     0.42759158    -0.08514108
O      -0.03855876    -0.76335078     3.28507680     0.31244263    -0.72509764    -0.38395455
O       5.71355402     6.75641299     1.64696100    -1.14473089    -0.25455910     0.51824820
O       5.63756200     2.78632899     1.69526901     0.65923110     0.23779191    -0.11153064
O       1.96121900     6.77961202     1.58408099    -0.50300181    -0.83241938     0.30058624
O       1.86328199     2.71607198     1.51040200     0.54672061     0.41491887     0.72862905
