# total energy = -19961.83313872 eV

CRYSTAL
PRIMVEC
        5.22914424     0.00000000     0.00000000
        0.27812439     5.55843693     0.00000000
        0.00000000     0.00000000     9.36194486
PRIMCOORD
24 1
Ti      2.06012947     3.29392444     3.47321477     0.25051270    -0.36735858     0.27979886
Ti      3.44713895     2.26451228     5.88873020    -0.25051270     0.36735858    -0.27979886
Ti      4.62310724     2.26451418     1.20772030    -0.28267876    -0.13693469     0.11678649
Ti      0.88416123     3.29392275     8.15422477     0.28267876     0.13693469    -0.11678649
Ti      1.92106738     0.51470619     1.20775782     0.25051270    -0.36735858    -0.27979886
Ti      3.58620104     5.04373070     8.15418725    -0.25051270     0.36735858     0.27979886
Ti      0.74509914     0.51470413     5.88869262     0.28267876     0.13693469     0.11678649
Ti      4.76216933     5.04373276     3.47325234    -0.28267876    -0.13693469    -0.11678649
O       1.75298941     1.95722005     4.77732880     0.24455854     0.30794114    -0.13682285
O       3.75427900     3.60121667     4.58461616    -0.24455854    -0.30794114     0.13682285
O       1.05747894     1.95724248     0.09638646    -0.08943894    -0.01071996     0.14975859
O       4.44978953     3.60119429     9.26555823     0.08943894     0.01071996    -0.14975859
O       3.61521691     0.82199826     0.09635611    -0.24455854    -0.30794114    -0.13682285
O       1.89205150     4.73643847     9.26558859     0.24455854     0.30794114     0.13682285
O       4.31072744     0.82197588     4.77735921     0.08943894     0.01071996     0.14975859
O       1.19654092     4.73646095     4.58458575    -0.08943894    -0.01071996    -0.14975859
O       0.35915792     3.38095631     2.52889491    -0.05054251     0.01566394     0.00794265
O       5.14811055     2.17748041     6.83305011     0.05054251    -0.01566394    -0.00794265
O       2.91352009     2.17742862     2.15210734     0.20030367     0.05579656    -0.10378827
O       2.59374838     3.38100810     7.20983746    -0.20030367    -0.05579656     0.10378827
O       0.22009583     0.60173790     2.15207747    -0.05054251     0.01566394    -0.00794265
O       5.28717264     4.95669882     7.20986734     0.05054251    -0.01566394     0.00794265
O       2.45468629     0.60178968     6.83307993    -0.20030367    -0.05579656    -0.10378827
O       3.05258217     4.95664704     2.52886498     0.20030367     0.05579656     0.10378827
