# total energy = -4988.81939631 eV

CRYSTAL
PRIMVEC
        4.08966164     0.00000000     0.00000000
        0.20434661     4.08455319     0.00000000
       -2.14704043    -2.04231113     5.22095068
PRIMCOORD
6 1
Ti      0.15309475     3.06356999     1.30523753     0.00009230    -0.00009230     0.00000000
Ti      1.99387255    -1.02132843     3.91571287    -0.00009230     0.00009230     0.00000000
O       0.05112967     1.02113162     0.85045018    -0.00041600    -0.00157943    -0.86547992
O       2.09583745     1.02110984     4.37050028     0.00041600     0.00157943     0.86547992
O      -0.05110951    -1.02111243     3.46092552    -0.00157943    -0.00041600    -0.86547992
O       2.19807663     3.06335383     1.76002499     0.00157943     0.00041600     0.86547992
