# total energy = -19516.69780287 eV

CRYSTAL
PRIMVEC
        5.17600016     0.00000000     0.00000000
        0.00000000     5.50899976     0.00000000
        0.00000000     0.00000000     9.26300011
PRIMCOORD
23 1
Ti      1.92494300     3.22497301     3.47059100     0.55655277    -0.16646125     1.47231295
Ti      3.30110601     2.26905500     5.97715203     0.19515400     0.20973730    -2.69394427
Ti      4.21382198     2.13429499     1.50612000     0.16421591    -0.22066835    -0.87854653
Ti      0.83369902     3.39262398     7.80834000    -0.53793797     1.05711229     1.54663020
Ti      1.88976398     0.18109398     1.34327703     1.97866491     0.14602200    -0.29168919
Ti      3.39094199     5.21633802     7.90797201    -0.77309835     0.57630245     0.91098590
Ti      0.71015502     0.59400998     5.82688098    -0.76240822     0.15777478    -2.96973992
Ti      4.61453299     4.82723901     3.39922198    -0.91762500     0.81456898     2.39225143
O       1.76586099     1.96344001     4.80559498    -1.00469879     0.44635139     0.15903102
O       3.63633000     3.53166203     4.56351401    -0.48756439    -0.08262603    -0.24626601
O       4.87416100     3.25526698     0.04030198    -0.19662082    -1.04955298    -0.49128683
O       3.11742498     1.06881797     0.18779098     1.46752144     0.70988519    -0.65650881
O       1.70606301     4.83665900     8.97760000     0.03596846    -1.22023573    -0.36006565
O       4.26849002     0.60822601     4.76183101     0.35217827     0.63406667    -0.68574021
O       1.08613599     4.73832898     4.39153801     0.39635447    -0.09543887    -0.16967385
O       0.11501699     3.16847799     2.66416202     1.36781428    -0.44865278    -0.30352835
O       5.10615998     2.19290402     6.58993103     0.31923574    -0.19325653     1.40806337
O       2.63612902     1.67836598     2.58598698     0.87587747     0.41324714    -2.16629071
O       2.73153401     3.61856198     7.12855499    -1.10309520    -1.57071167     0.52074243
O       0.21334998     0.52217200     1.91517401    -2.04105095     0.85455839     0.06638205
O       5.11816199     4.80884000     6.98911700    -0.55130849     0.14484366     1.04934678
O       2.44232002     0.59588401     6.53303500     1.39468411    -0.32781372     2.66563641
O       3.01272002     4.49461201     2.24980301    -0.72881340    -0.78905180    -0.27810193
