# total energy = -4981.01852171 eV

CRYSTAL
PRIMVEC
        4.32338758     0.00000000     0.00000000
        0.00000000     2.56948646     0.00000000
        0.00000000    -0.00010257     5.85804833
PRIMCOORD
6 1
Ti      2.16169379     1.28469179     2.92902390     0.00000000     0.00000000     0.00000000
Ti      0.00000000     0.00000000     0.00000000     0.00000000     0.00000000     0.00000000
O       2.16169379     0.50073502     1.14164725     0.00000000    -0.40294267     1.76051983
O       2.16169379     2.06864856     4.71640055     0.00000000     0.40294267    -1.76051983
O       0.00000000     0.78391619     4.07067244     0.00000000     0.40243102     1.75819736
O       0.00000000     1.78546738     1.78737536     0.00000000    -0.40243102    -1.75819736
