# total energy = -39034.62037217 eV

CRYSTAL
PRIMVEC
        7.60600008     0.00000000     0.00000000
        0.00000000     7.60600008     0.00000000
       -3.79573973    -3.79573973     9.71340985
PRIMCOORD
46 1
Ti      1.76308043     4.77892846     6.13222461     0.02929927     0.87227355    -0.67751422
Ti      3.74028000     6.61332500     1.34716902     0.27843438     1.03249293    -0.50766322
Ti      1.88184246     0.82269144     5.99119660     0.38502644    -0.51059994     2.60718210
Ti      3.86922398     2.62968898     1.31511897     1.13234279     0.54150847    -2.58224445
Ti     -1.97789956     4.82625845     6.06478362    -0.04908418     1.13500517    -2.38208580
Ti      0.02017001     6.70574798     1.18325398    -0.45164863     0.22743473    -0.75597686
Ti     -1.92211454     1.10617847     6.13504561     0.34337173    -1.28710989    -0.34567004
Ti      0.08680401     2.88283103     1.19097902    -0.18671872    -0.58544452    -0.03005852
Ti      3.77695246     0.96225247     8.57692461    -0.24710316     0.00168767    -0.74022396
Ti      5.86420697     2.87558902     3.62490200    -0.21847314     1.06513336    -1.18852579
Ti      3.70210044    -2.82450357     8.43127762    -0.04137806    -0.15440123     0.21058577
Ti      5.78254302    -0.84658099     3.53042100    -1.07627344    -1.28274261     1.55000349
Ti      0.03123543     0.91929545     8.43297464     0.58193471     0.39519053     0.33534191
Ti      2.05572900     2.84493998     3.44797598    -0.67720414     0.15922051     2.94820873
Ti     -0.11295754    -2.83877554     8.50711565    -0.63844629    -1.26374652     0.93719162
Ti      1.86711900    -1.09154201     3.66096500     0.24850287     1.47460277     0.34422456
O       1.67278443    -0.99960556     5.67970065    -0.40964245    -0.36970395    -0.72260444
O       3.64100698     0.91016000     1.07626397     0.79898526    -2.26256879    -1.45250696
O      -1.64756056     2.90940842     5.45387161    -1.02627163     0.57302146     2.10157705
O       0.18554097     4.76981598     0.74856398    -0.34905721    -0.76598385     0.52944716
O      -1.72883658    -0.93969253     5.50698862    -0.14265308     0.08893346     2.03122367
O       0.19492202     0.94465701     0.73959601    -0.84626015     0.24874147     0.50513326
O       3.57929946     2.93203144     8.89024162    -0.40058805    -0.77220875    -0.34351314
O       5.49401198     4.86312702     3.92653801     0.67817422    -1.73225697     0.41925709
O       4.00357346    -1.06150353     8.95591262    -0.25992911     1.72357924    -0.33229078
O       5.70428299     0.96164900     4.11978200     0.08960709     1.01840586    -0.80424445
O       0.19841945     2.74653444     9.07512864    -0.34510619    -0.36913290     0.15624240
O       1.94000502     4.78998398     3.94639099     0.25615962    -3.22813614     0.63092041
O      -0.29015656    -1.12197256     9.00744062     0.02711152     2.64676297    -0.14346735
O       1.94375001     0.90563998     4.26591001     0.12716707     2.16445160    -3.21918587
O       1.92361545     0.60022443     8.25891665    -1.53386132     0.65765269     0.08102706
O       3.88046302     2.71982099     3.11386098     0.88647093     0.49215818     3.16894496
O       1.62867047    -2.55901355     8.06455662     3.38179664    -0.83190310     0.61680453
O       3.73066802    -0.90792200     3.34332297     0.00229240    -0.06661191    -1.24934577
O      -1.96284553     1.27455246     8.15634262     0.83744281    -0.77073962    -1.19871610
O       0.19384398     2.94691100     3.18716298    -2.42254366    -0.34871782     0.05807481
O      -2.05767356    -3.02905656     7.89223163    -0.22371280    -0.18381055     1.33574849
O      -0.00875000    -1.12316998     3.10427398     0.68157502     0.62248436     0.77104327
O       3.62622145     4.94549145     6.36203164     0.73248237    -0.97369718     0.90015795
O       5.72402501     6.70543301     1.64730602    -1.07985447    -0.06986256    -0.90746374
O       3.70655045     0.77027046     6.59872463     1.32185065     1.00073311    -0.91071927
O       5.73427099     2.92525998     1.60958997     1.79959059    -0.01147124    -0.60035127
O      -0.08333457     4.72922443     6.61471864    -0.80174123    -0.48580447    -1.60997835
O       1.83708402     6.65759401     1.49076597     1.72192808    -0.62793279     1.00289413
O       0.06218944     1.19655443     6.39817264    -0.85916272    -0.26498673     1.30778979
O       2.03335797     2.68097001     1.66490302    -2.05483207     1.07809995    -1.84467413
