# total energy = -4987.27690281 eV

CRYSTAL
PRIMVEC
        4.13412155     0.00000000     0.00000000
        1.21293654     3.95218243     0.00000000
       -2.67356635    -1.97611879     5.33778827
PRIMCOORD
6 1
Ti      0.90957589     2.96428833     1.33444676     0.00037564    -0.00037564    -0.00000000
Ti      1.76391558    -0.98822489     4.00334072    -0.00037564     0.00037564     0.00000000
O       0.30327737     0.98804013     0.86948194    -0.00060807    -0.00111097    -1.35992356
O       2.37021391     0.98802323     4.46830553     0.00060807     0.00111097     1.35992356
O      -0.30324554    -0.98801659     3.53837591    -0.00111097    -0.00060807    -1.35992356
O       2.97673681     2.96407984     1.79941162     0.00111097     0.00060807     1.35992356
