# total energy = -19075.41295386 eV

CRYSTAL
PRIMVEC
        5.17600016     0.00000000     0.00000000
        0.00000000     5.50899976     0.00000000
        0.00000000     0.00000000     9.26300011
PRIMCOORD
22 1
Ti      1.89580703     3.20077501     3.40936202    -0.52551568     1.29798232    -0.75146791
Ti      3.29699298     2.23842300     5.86272300     0.36451417     0.86614096     0.70394594
Ti      4.46547598     2.26457800     1.23582002     1.14037286    -0.08356705    -1.31018812
Ti      0.68107599     3.32601999     8.05800699     0.29325011    -0.64731480     1.19259147
Ti      1.87631103     0.54171399     1.24154402     0.03218431    -0.61903780    -0.97988609
Ti      3.33122799     5.01012003     8.05496301    -1.12540852     0.16626559     1.70573783
Ti      0.73077902     0.52152101     5.84357102    -0.15412432     0.10867080    -0.89311544
Ti      4.46287201     4.95858599     3.50263798    -0.06854126    -0.65073488    -1.63505355
O       3.39437598     3.59622303     4.45253702     0.52647265    -0.94730249     1.82572072
O       0.89657898     1.91120503     9.25031800    -0.23123379    -0.22780368     1.27763177
O       4.25339598     3.64206200     9.16621898    -0.56484458     0.50477099    -0.06184560
O       3.49513498     0.84472998     0.19181897     0.25042271    -0.48484956    -1.70801815
O       1.69443101     4.63548502     9.00254600     0.06184560     1.56998174     1.41483283
O       4.25449598     0.79468199     4.63770598     0.17973278     1.57470563     1.74569588
O       0.94158699     4.63161700     4.48931399     0.08635465     0.94818257     1.58370835
O       0.13250101     3.34699599     2.60358800     0.11100588    -0.94459177    -0.92781120
O       5.02318901     2.27395301     6.74155603    -0.46118409    -1.87469923    -1.81266542
O       2.80190802     2.11208801     2.17667002    -0.81137670    -0.15145526     0.24509693
O       2.31261100     3.21640500     7.18285403     1.99159139     0.33539513    -1.94820735
O       0.16383502     0.59783900     2.03942499     0.18499660    -0.04906464     0.77912528
O       2.47509001     0.61109601     6.67947099    -0.43346964    -0.25369881    -0.44554458
O       2.82900100     4.92031198     2.43243499    -0.84704511    -0.43797653    -0.00028334
