# total energy = -19517.60173293 eV

CRYSTAL
PRIMVEC
        5.17600016     0.00000000     0.00000000
        0.00000000     5.50899976     0.00000000
        0.00000000     0.00000000     9.26300011
PRIMCOORD
23 1
Ti      1.82782601     3.10368998     3.43969599     0.00796245     0.71370405     1.73486716
Ti      3.30297300     2.28667502     5.89201201     1.69118564    -0.02909590    -2.51412948
Ti      4.36897702     2.04969098     1.47513699     1.68141082    -0.42794794    -2.17642164
Ti      0.89715002     3.44885002     7.69064098    -3.21971424     0.23788292     2.63234422
Ti      2.04499702     0.25470899     1.43642201     0.03587899    -1.49861637    -1.68036258
Ti      3.19131400     5.27180701     7.90636898    -0.28410726     0.46892825     1.51391650
Ti      0.73237200     0.61429202     5.89955501    -1.35731312    -1.45398123    -2.31262922
Ti      4.52890698     4.85837501     3.37143202     0.79011109     0.53453357     2.83198505
O       1.65484098     1.80418099     4.81281200     0.84116294     0.53228077    -1.23252406
O       3.51835401     3.46694000     4.46685999     0.07595736     0.15960746     0.07805589
O       0.07342901     2.66688601     9.17081399    -0.01689704     0.08409027     0.46075137
O       3.45192798     0.84992597     0.22565002     0.18727717    -0.49876926    -0.72028119
O       1.70527898     4.75525001     9.09515900     0.37995005    -0.52322637    -0.56156565
O       4.30178400     0.72979099     4.82422598    -0.49390961    -0.17945304    -0.47471555
O       0.98047300     4.54636501     4.48261201    -0.20505147     0.40725724     0.06526876
O       0.12086101     3.27654001     2.49610501     1.00408763     0.72602247     0.33012900
O       5.11364699     2.21297698     6.61051200    -1.07787909     0.38300890     0.43810586
O       2.67910302     1.77594399     2.28211801     0.02005487     1.67598733     0.85667312
O       2.49094903     3.72526502     6.89510501     1.78610798    -0.06180729    -0.19911376
O       0.35190599     0.68149600     2.10089200    -1.23241016    -0.65318643     0.22016056
O       4.92967699     4.89758800     7.17104501     0.20085440    -0.27059148     0.63418571
O       2.30531402     1.09082799     7.00149101    -0.04032725    -0.49868158     1.02548590
O       2.92978402     4.45725601     2.39536400    -0.77439213     0.17205315    -0.95018546
