# total energy = -19958.70896949 eV

CRYSTAL
PRIMVEC
        7.60600008     0.00000000     0.00000000
        0.00000000     7.60600008     0.00000000
       -1.89786986    -1.89786986     4.85670466
PRIMCOORD
24 1
Ti      3.71104697     6.56050300     1.34437200     0.30842219     2.88278493     0.92977038
Ti      3.49726302     3.02730298     1.19595000     5.23627464    -1.14740483    -0.66669192
Ti      0.03568602     6.55586302     1.18670200     0.23205037     2.11376537    -0.40061556
Ti      0.13228299     3.09972199     1.14691099    -2.74407309    -1.93580666    -0.86355751
Ti      5.64488221     2.83025324     3.43199382    -0.78692987     1.27438498    -0.03968499
Ti      6.00937823    -0.95494178     3.69057379    -1.12551677    -1.54645870    -0.15973858
Ti      1.73145225     2.84930823     3.62160083     1.09267631     1.00503791     1.45181790
Ti      2.02455522    -1.02584778     3.80232783    -0.34693348    -0.56668857    -0.21633321
O       3.52947700     4.83755501     0.82672399    -0.22513333    -3.32104659    -0.99147251
O       3.68872702     0.72325602     0.84182200     1.27828252     2.63578487    -0.21183970
O       0.48621801     4.82091598     0.68147002    -0.23117671    -1.51295927    -0.03175879
O       0.12051297     0.95883198     0.66450301    -0.07916918    -0.77318577     1.35528863
O       5.47556825     4.65436623     4.02039780     0.72339583     0.20013886     0.40075054
O       5.69218621     0.90051521     4.06093183     0.18998685     2.04555912    -0.77573708
O       1.98355324     4.65512025     4.11978782    -0.17698658    -1.12151356    -0.78052062
O       1.57296223     0.79857424     4.13151979     0.49235435     2.55950638     0.20627454
O       3.67046220     3.07881124     3.11198383     0.81068687    -1.61130838     0.45067521
O       3.77890724    -0.95925680     3.25888280     0.91645258    -0.03224679     0.29555305
O      -0.06711677     3.05677222     3.11074883     1.75837116    -0.21588841     0.47837089
O       0.17706424     6.26341924     3.20186479    -1.08246723     0.60183377     0.35306659
O       5.85522498     6.40997298     1.74014700    -0.66894087     0.46824357    -0.63972413
O       5.80331799     2.91325798     1.59113899    -0.93553737     0.08738077    -0.83874019
O       1.91283299     6.90389602     1.67177301    -0.51920337    -1.17694811     0.26958541
O       1.91247701     2.71679002     1.65408902    -4.11688636    -0.91296488     0.42526191
