# total energy = -19911.53009787 eV

CRYSTAL
PRIMVEC
        6.52959639     0.00000000     0.00000000
        0.69324914     6.91480084     0.00000000
        0.00000000     0.00000000    11.70121113
PRIMCOORD
24 1
Ti      2.77748350     4.09770462     4.34106597    -0.08726482    -1.32974985     0.68831208
Ti      4.44536223     2.81709628     7.36014555     0.08726482     1.32974985    -0.68831208
Ti      5.91378586     2.81709863     1.50949305     0.16049166     0.40920793    -0.52769238
Ti      1.30905989     4.09770260    10.19171868    -0.16049166    -0.40920793     0.52769238
Ti      2.43085907     0.64030425     1.50953999    -0.08726482    -1.32974985    -0.68831208
Ti      4.79198667     6.27449691    10.19167174     0.08726482     1.32974985     0.68831208
Ti      0.96243536     0.64030171     7.36009868    -0.16049166    -0.40920793    -0.52769238
Ti      6.26041031     6.27449939     4.34111291     0.16049166     0.40920793     0.52769238
O       2.31076337     2.43481894     5.97103862     1.60267281     1.64022764    -0.27417329
O       4.91208236     4.47998202     5.73017290    -1.60267281    -1.64022764     0.27417329
O       1.44228553     2.43484691     0.12047053    -1.18684120     0.90747634     0.32915429
O       5.78056027     4.47995412    11.58074073     1.18684120    -0.90747634    -0.32915429
O       4.56545792     1.02258140     0.12043259    -1.60267281    -1.64022764    -0.27417329
O       2.65738782     5.89221957    11.58077867     1.60267281     1.64022764     0.27417329
O       5.43393582     1.02255349     5.97107663     1.18684120    -0.90747634     0.32915429
O       1.78890984     5.89224748     5.73013496    -1.18684120     0.90747634    -0.32915429
O       0.65890874     4.20597401     3.16078912     0.48591682     0.43766851     0.87089673
O       6.56393693     2.70882696     8.54042240    -0.48591682    -0.43766851    -0.87089673
O       3.77361587     2.70876256     2.68985385     0.53441196     0.92317396     0.17646567
O       3.44922986     4.20603834     9.01135755    -0.53441196    -0.92317396    -0.17646567
O       0.31228429     0.74857338     2.68981644     0.48591682     0.43766851    -0.87089673
O       6.91056137     6.16622752     9.01139489    -0.48591682    -0.43766851     0.87089673
O       3.10260542     0.74863778     8.54045974    -0.53441196    -0.92317396     0.17646567
O       4.12024032     6.16616319     3.16075178     0.53441196     0.92317396    -0.17646567
