# total energy = -4988.78219397 eV

CRYSTAL
PRIMVEC
        3.00485057     0.00000000     0.00000000
        1.15892948     4.56328415     0.00000000
       -0.00000745    -0.00006170     4.74594872
PRIMCOORD
6 1
Ti      2.08188618     2.28161113     2.37297441     0.00000000     0.00000000     0.00000000
Ti      0.00000000     0.00000000     0.00000000     0.00000000     0.00000000     0.00000000
O       1.72828203     0.88930479     0.92491553    -1.29121569     0.60151006     0.53181103
O       2.43549028     3.67391748     3.82103329     1.29121569    -0.60151006    -0.53181103
O       0.35360098     1.39228137     3.29789089     1.29153476    -0.59997409     0.53032133
O       0.80532093     3.17094098     1.44805793    -1.29153476     0.59997409    -0.53032133
