# total energy = -19958.95950277 eV

CRYSTAL
PRIMVEC
        5.34599969     0.00000000     0.00000000
        0.84871906     5.62610413     0.00000000
        0.00000000     0.00000000     9.59533650
PRIMCOORD
24 1
Ti      2.44061787     3.33402404     3.55980144     0.52729720    -1.18042758     0.69924673
Ti      3.75410081     2.29207993     6.03553528    -0.52729720     1.18042758    -0.69924673
Ti      4.95634860     2.29208183     1.23782855    -0.83069340    -0.35183966     0.30831086
Ti      1.23837009     3.33402236     8.35750828     0.83069340     0.35183966    -0.30831086
Ti      2.01625846     0.52097208     1.23786703     0.52739413    -1.18084384    -0.70501835
Ti      4.17846023     5.10513205     8.35746979    -0.52739413     1.18084384     0.70501835
Ti      0.81401065     0.52097001     6.03549680     0.83009125     0.35097191     0.30889888
Ti      5.38070804     5.10513412     3.55983992    -0.83009125    -0.35097191    -0.30889888
O       1.99089104     1.98104684     4.89642682     0.69915314     0.93471642    -0.43367764
O       4.20382764     3.64505713     4.69890985    -0.69915314    -0.93471642     0.43367764
O       1.27984027     1.98106958     0.09878936    -0.17814486    -0.09060057     0.44352754
O       4.91487847     3.64503444     9.49654709     0.17814486     0.09060057    -0.44352754
O       3.77946821     0.83200501     0.09875824    -0.69967816    -0.93503241    -0.43384862
O       2.41525046     4.79409896     9.49657821     0.69967816     0.93503241     0.43384862
O       4.49051904     0.83198231     4.89645799     0.17782219     0.09109293     0.44383865
O       1.70419958     4.79412171     4.69887873    -0.17782219    -0.09109293    -0.44383865
O       0.71047156     3.42211545     2.59193982    -0.00294931     0.29680569     0.26260975
O       5.48424711     2.20398846     7.00339690     0.00294931    -0.29680569    -0.26260975
O       3.19971504     2.20393614     2.20575906     0.62206527     0.30158486    -0.17495052
O       2.99500364     3.42216777     7.38957749    -0.62206527    -0.30158486     0.17495052
O       0.28611214     0.60906332     2.20572838    -0.00313803     0.29633775    -0.26229916
O       5.90860653     5.01704059     7.38960812     0.00313803    -0.29633775     0.26229916
O       2.57064421     0.60911565     7.00342748    -0.62204239    -0.30166276    -0.17442345
O       3.62407446     5.01698826     2.59190919     0.62204239     0.30166276     0.17442345
