# total energy = -19518.61749584 eV

CRYSTAL
PRIMVEC
        7.60600008     0.00000000     0.00000000
        0.00000000     7.60600008     0.00000000
       -1.89786986    -1.89786986     4.85670466
PRIMCOORD
23 1
Ti      3.74634802     6.71062101     1.22298202     1.28312931    -0.58211571     0.13453071
Ti      3.72788698     2.85760001     1.25250598     0.66693927     0.63807374     1.24768304
Ti      0.06418603     6.63026402     1.14798998    -1.45403085     0.21979212    -0.31368422
Ti     -0.02393601     2.81431199     1.13632898    -0.39749475    -0.04071780     0.44548313
Ti      5.76430021     2.74287724     3.63002179    -1.78806279     0.33627934     0.99505997
Ti      5.72968123    -1.01306280     3.51078879     0.09279552     0.08855860     0.21425473
Ti      1.89962922     2.88204821     3.69665579     1.88426785     0.08759597     0.94623908
Ti      1.93189623    -0.92649978     3.67098482    -0.31831246     0.19155266    -0.05119762
O       4.00805601     4.79959199     0.89721601    -1.20345696    -0.62722496    -0.20340622
O       3.62295299     0.96270402     0.84022399     0.12034284     1.01131706    -0.40978669
O       7.28787200     4.71374801     0.76064203     1.39790854     0.25379549     0.53991078
O       0.02289702     0.94985099     0.66535398     0.34723044    -1.17460866     0.71177649
O       5.77252125     4.67881824     3.96127680     0.52565735     0.44702399     0.28595563
O       5.60010424     0.85888923     4.07736680     0.82444150     1.28557751    -0.89241353
O       1.95619425     4.82229121     4.08088583    -0.61222154    -0.42856012    -0.07261646
O       2.03842622     1.00531522     4.11832279    -1.11459343    -0.47124662     0.48888388
O       3.76231922     2.84681422     3.34651582     0.22206626     0.15698802    -1.43863611
O       3.78302424    -0.80861877     3.20069484    -0.01956533    -0.63024344     0.02545059
O       0.01995220    -0.85057776     3.16208183     0.09597855    -0.16345332     0.06138023
O       5.69769500     6.85695598     1.56188999     0.18226608    -0.44236823     0.44844041
O       5.74018799     2.73416900     1.81466002     0.31493249    -0.27840558    -1.53812576
O       1.88999798     6.54927698     1.64339302    -0.17445430    -0.13293611    -0.30160748
O       1.83968497     2.88889598     1.79817800    -0.87576331     0.25532632    -1.32357432
