# total energy = -4914.20245372 eV

CRYSTAL
PRIMVEC
        5.59728360     0.00000000     0.00000000
       -0.00000726     2.12310727     0.00000000
       -2.79867536    -1.06165441     6.17738918
PRIMCOORD
6 1
Ti     -0.00023916     1.59239054     1.54434703    -0.04394480    -0.03041539    79.00587018
Ti      2.79884020    -0.53093795     4.63304167     0.04394480     0.03041539   -79.00587018
O       0.00005942     0.53075992     1.00624614     0.04182852     0.03052646   -73.64248554
O       2.79854145     0.53069262     5.17114261    -0.04182852    -0.03052646    73.64248554
O      -0.00002426    -0.53081840     4.09494073    -0.00127038     0.00003265    -0.69827331
O       2.79862503     1.59227089     2.08244802     0.00127038    -0.00003265     0.69827331
