# total energy = -4881.91857283 eV

CRYSTAL
PRIMVEC
        5.73324593     0.00000000     0.00000000
       -0.00000709     1.91108198     0.00000000
       -2.86665945    -0.95566534     6.50390871
PRIMCOORD
6 1
Ti     -0.00024537     1.43335706     1.62597678    -0.06035333    -0.03913478   114.55924083
Ti      2.86682459    -0.47794047     4.87793097     0.06035333     0.03913478  -114.55924083
O       0.00006053     0.47774978     1.05943341     0.05957865     0.03945385  -110.67878138
O       2.86651854     0.47766675     5.44447439    -0.05957865    -0.03945385   110.67878138
O      -0.00002630    -0.47783004     4.31138760    -0.00100530     0.00006119    -0.48098699
O       2.86660526     1.43324651     2.19252020     0.00100530    -0.00006119     0.48098699
