# total energy = -19960.80117849 eV

CRYSTAL
PRIMVEC
        5.93400000     0.00000000     0.00000000
        0.00000000     9.29699974     0.00000000
        0.00000000     0.00000000     4.64899994
PRIMCOORD
24 1
Ti      4.41358999     7.06890602     2.20074002    -0.10553457    -1.54297691     0.63323903
Ti      4.47576298     2.22695202     2.39459400     0.38392421     2.39875864    -0.18840948
Ti      1.48328002     7.01839801     2.40260399     0.38570418    -1.41782277     0.37502022
Ti      1.46336100     2.27006700     2.33147802    -0.32404319     1.91082555    -0.78276828
Ti      2.97780300     4.62438003     0.07992598     0.13379460     0.33393320    -0.56311525
Ti      3.00379999     0.02744102     4.59115098    -1.16964797    -0.97451582     0.37685316
Ti      0.04648102     4.69813601     4.57709899    -0.18754148    -0.19682650    -0.07358629
Ti      5.89353001     0.01149902     0.07265403     1.17170408    -0.60112311    -0.11705054
O       4.49023899     5.54603899     0.92472200    -0.64925675     0.35327896    -0.10920379
O       4.46925097     0.93192300     0.92991202    -0.34370623    -0.62775718    -0.24177866
O       1.46441999     5.51697002     0.85574698     0.41193510     0.24856432     0.27010400
O       1.45118701     0.91807199     0.84313801     0.13022282    -0.15329848     0.38075841
O       4.39657901     8.39233102     3.72777501     0.62765305     0.20014040     0.16568478
O       4.45570901     3.72498402     3.75242202    -0.51128051    -0.48752531    -0.37908025
O       1.50626198     8.28057598     3.75830398    -0.26158490     1.66933640     0.73399237
O       1.43314699     3.79776600     3.64052702     0.79638536    -0.90189936     0.29574768
O       2.96208998     6.15008001     3.33310001     0.67479707    -0.11237448    -1.12341078
O       2.99254900     1.36008999     3.26797501    -0.40166791     0.48468218    -0.56649703
O       0.04221199     6.02447899     3.08856800    -0.77591808     0.26065596     0.69430404
O       5.90271197     1.35142202     3.27964300     0.12194644     0.36104190    -0.71699121
O       2.92307601     7.80806800     1.31853301     0.77518018     0.55284369     0.28739313
O       2.87900899     3.14399799     1.36969398     0.50839984    -0.10349157     0.51600491
O       0.07598001     7.97248798     1.47557203    -1.21712803     0.11971369    -0.56467231
O       0.01584002     3.29494199     1.43762499    -0.17433706    -1.77416340     0.69746238
