# total energy = -79406.60016767 eV

CRYSTAL
PRIMVEC
       10.35150501     0.00002646     0.00000000
        0.00002858    11.01713167     0.00000000
        0.00000000     0.00000000     9.26345890
PRIMCOORD
95 1
Ti      7.02062911     8.82449781     3.48056968    -0.00539829     0.00114723     0.00692295
Ti      7.15516290     3.22310516     3.41442790    -0.00337226    -0.01122904    -0.00032344
Ti      1.84546748     8.81759338     3.44195736     0.00764004    -0.01997234    -0.01473397
Ti      1.77200937     3.13627011     3.51264508     0.00714973    -0.00416930    -0.00058595
Ti      8.48746675     7.73109385     5.80619476     0.00913539     0.00900066     0.00491415
Ti      8.49134212     2.22428357     5.84588783    -0.00062478     0.02108665     0.00219624
Ti      3.28763622     7.69275887     5.79379749     0.01081818    -0.00110892     0.00291486
Ti      3.33729419     2.17462612     5.84758960     0.00648998     0.00574976     0.00591611
Ti      9.53001057     7.76555315     1.19492745     0.00092765    -0.00232762    -0.00422715
Ti      9.67558789     2.19246642     1.15144589    -0.00200572     0.02504821    -0.00561041
Ti      4.45039953     7.69301217     1.21761424    -0.00567546    -0.00875332     0.01080841
Ti      4.46793372     2.21713516     1.21196572    -0.00642365     0.02039168     0.00994580
Ti      5.89570180     8.81463188     8.11100552    -0.01050167     0.01505639     0.00634780
Ti      5.91749684     3.30854877     8.11072795    -0.00182523    -0.00168973    -0.00074613
Ti      0.68284100     8.90236578     7.94570097    -0.00151592     0.01915035    -0.01445012
Ti      0.73346592     3.30805198     8.05929484     0.01442672     0.01120744    -0.00665865
Ti      7.02231283     6.03126744     1.19618418    -0.01787354    -0.00129249     0.01008773
Ti      7.02809162     0.55107873     1.22075283    -0.00525405    -0.02146718    -0.00874330
Ti      1.74334061     6.28620305     0.95108084    -0.00596702     0.01475402     0.00851678
Ti      1.88311109     0.52577043     1.15175062    -0.00732790    -0.00626912     0.00381706
Ti      8.41749404    10.47603136     8.11028904    -0.00324113     0.00479562     0.01495251
Ti      8.51355865     4.95595047     8.08496015    -0.01326690     0.02313428     0.01391147
Ti      3.32959829    10.45649773     8.08177765    -0.00527128     0.01006330     0.00050368
Ti      3.30517911     4.94487861     8.07279386    -0.01486278     0.01506179     0.01425292
Ti      5.89840353     6.14960853     5.96659841    -0.00017792     0.00226231     0.00058236
Ti      5.90303517     0.55095932     5.82068768     0.00511624    -0.00393430     0.00242044
Ti      0.72924827     6.03962584     5.79089612    -0.00114260     0.00044197     0.00468738
Ti      0.68839929     0.50307119     5.84087773    -0.01047725    -0.01847570    -0.00043220
Ti      9.63177363    10.49048230     3.42310142     0.00091274    -0.00140717    -0.00416005
Ti      9.65752417     4.99397826     3.38695827     0.01096524     0.00395513     0.00421327
Ti      4.43469475    10.45517294     3.44764333    -0.00579218     0.00230499     0.00148533
Ti      4.74582098     4.90288893     3.63418488    -0.00514555    -0.00571865     0.00705537
O       6.81376375     7.44705262     4.74419110     0.00469535     0.00842782    -0.01309875
O       6.83716742     1.92127264     4.72428973    -0.00693941    -0.02973816     0.00435339
O       1.63853264     7.44010728     4.72837375     0.00667561    -0.00438219    -0.01324350
O       1.60298326     1.86906409     4.72466115     0.01448509    -0.00751457     0.00382426
O       8.71653747     9.07945260     4.53920222    -0.00803727    -0.00148867     0.00024965
O       8.75140212     3.55644873     4.53400389     0.00528336     0.00562815    -0.00280430
O       3.52706333     9.07857378     4.53396921    -0.00294289     0.00294186    -0.00869650
O       3.44494994     3.65420894     4.36374469    -0.03232186    -0.02663098    -0.01105755
O       6.09725668     7.41856133     0.12043371    -0.00148507     0.01070402    -0.00218390
O       6.13094926     1.92356462     0.09601171     0.00068160     0.00872890    -0.00242198
O       0.89949428     7.48176738    -0.02663625    -0.01584700    -0.00248909     0.00744926
O       0.95404961     1.92946998     0.08011942     0.00796374    -0.00812289    -0.00225152
O       9.37779930     9.10588342     9.16356705     0.00729808    -0.00256570    -0.00982239
O       9.41681689     3.57731181     9.16125523    -0.00762384    -0.00175452     0.00960667
O       4.19825949     9.06938385     9.19721469     0.00278476    -0.01064334    -0.01811780
O       4.24292963     3.57789000     9.19314879    -0.00521189    -0.00963907    -0.00884794
O       8.69902485     6.33702298     0.10072393     0.00949817    -0.00676278     0.00267318
O       8.70503954     0.82004061     0.09019994     0.00139277     0.00559652    -0.00452437
O       3.53237566     6.31474199     0.10003486     0.01826821    -0.00838668    -0.00254102
O       3.53999322     0.81797805     0.11283669     0.00365920    -0.00701551    -0.00637685
O       6.79708509    10.18464722     9.19421513     0.00854455     0.00825736    -0.01589097
O       6.82472784     4.66990083     9.18503233     0.01531504     0.00862323    -0.00758784
O       1.61611301    10.21485111     9.15484465     0.00158329    -0.00225614     0.00242018
O       1.66143731     4.67344531     9.20689961    -0.00867722     0.00029362    -0.00760970
O       9.41080957     6.31453785     4.71229192    -0.00733793    -0.00005605     0.00368722
O       9.41068717     0.80543694     4.73879191     0.01510318    -0.00393250     0.00497303
O       4.24712014     6.32830666     4.75249233     0.01198314    -0.01188133    -0.00340517
O       4.22385454     0.84425019     4.70559868    -0.00907934    -0.00302953     0.00588937
O       6.11649022    10.19687307     4.54729401    -0.00087366     0.00496377     0.00508153
O       6.20630092     4.67974508     4.62184904     0.00678669    -0.01276296     0.01853792
O       0.94253399    10.16494250     4.55169429     0.00319100     0.00626244     0.00060601
O       1.00633019     4.71646356     4.44695981    -0.00316631     0.00159794     0.03040485
O       5.34806956     8.84391911     2.51457652     0.00702760    -0.00353887    -0.00486941
O       5.42333820     3.34110025     2.52650272     0.00432665    -0.00021057     0.01089171
O       0.18507385     8.86597665     2.47938805    -0.00131152     0.00379752    -0.01105112
O       0.17368133     3.37225443     2.46527839     0.00882120     0.00256802    -0.00412534
O      10.17128613     7.66777614     6.73246187    -0.00400090     0.01694795    -0.00475654
O      10.17292012     2.14346646     6.77280327     0.00694558    -0.00352833    -0.01969774
O       4.97365713     7.66116165     6.79649187    -0.00620845    -0.00879446    -0.01593210
O       4.97826937     2.18379045     6.74328683    -0.01354998    -0.00439505    -0.00534404
O       7.92632835     7.66473246     2.14020213     0.00432074     0.00621924     0.00744309
O       7.97875492     2.11558583     2.13666925     0.00275442     0.01578941     0.00484705
O       2.74077984     7.53061114     2.15698312     0.00042038     0.00447346    -0.00271611
O       2.77316091     2.25615461     2.11738443     0.02113782    -0.00216821     0.00476940
O       7.54548883     8.85058834     7.13666906    -0.00124570     0.01432079     0.00867696
O       7.58789422     3.36129362     7.13433229    -0.00909348     0.00602435     0.00217207
O       2.38175270     8.89711850     7.10875283     0.00159511     0.00144290    -0.00916727
O       2.41294585     3.36658439     7.10835093    -0.01012244    -0.00071194    -0.00739630
O       5.33558298     6.05300289     2.16080522     0.00661237    -0.00393636    -0.00552762
O       5.36144718     0.59064633     2.14059467     0.01215978    -0.00508616    -0.00998103
O       0.21016453     6.13889850     2.09064013    -0.00588963     0.00202089    -0.00605521
O       0.20884356     0.61747121     2.14752600     0.00823242    -0.00783647     0.00391193
O      10.12396293    10.41536705     7.11686992    -0.00626835    -0.01001291     0.00262458
O      10.17998541     4.90030738     7.11698524     0.00104670     0.00806093    -0.00227903
O       4.98359953    10.42092806     7.14124430     0.00617194    -0.00051602     0.00852115
O       4.99822100     4.91081926     7.15225097     0.00962390     0.00670724     0.00873353
O       7.58757619     6.11523345     6.79387507    -0.00805347    -0.00557235    -0.00087160
O       7.55888971     0.60501562     6.77453193     0.00990184    -0.00262870     0.01668415
O       2.39326768     6.11132664     6.77169458    -0.00345171    -0.00104181     0.00498331
O       2.41648604     0.64354153     6.75431515     0.00136706    -0.00357383    -0.01933522
O       7.95413862    10.41271136     2.50705157    -0.00636168    -0.00600584    -0.00315886
O       7.96973746     4.90187914     2.49529780    -0.00966324    -0.01264623     0.01343119
O       2.77045149    10.39949401     2.48436123    -0.00333344    -0.01393950    -0.00048208
