# total energy = -19952.43795740 eV

CRYSTAL
PRIMVEC
        5.80331244     0.00000000     0.00000000
        0.00002452     4.56522394     0.00000000
        0.00000000     0.00000000     9.23976741
PRIMCOORD
24 1
Ti      2.10343618     2.70534751     3.42788781    -0.17599696     1.28593335    -2.26210857
Ti      3.69990083     1.85987658     5.81187965     0.17599696    -1.28593335     2.26210857
Ti      5.00499218     1.85987817     1.19195901    -0.17342611    -1.28596292     2.26354016
Ti      0.79834484     2.70534613     8.04780856     0.17342611     1.28596292    -2.26354016
Ti      2.10342403     0.42273565     1.19199605    -0.17599696     1.28593335     2.26210857
Ti      3.69991299     4.14248860     8.04777152     0.17599696    -1.28593335    -2.26210857
Ti      0.79833268     0.42273391     5.81184261     0.17342611     1.28596292     2.26354016
Ti      5.00500433     4.14249034     3.42792485    -0.17342611    -1.28596292    -2.26354016
O       1.83679369     1.60749299     4.71498259     0.90399584    -1.15943554     1.52732249
O       3.96654337     2.95773111     4.52478488    -0.90399584     1.15943554    -1.52732249
O       1.06491378     1.60751140     0.09512860    -0.90370247    -1.15994539     1.52749938
O       4.73842334     2.95771274     9.14463860     0.90370247     1.15994539    -1.52749938
O       3.96653121     0.67511909     0.09509862    -0.90399584     1.15943554     1.52732249
O       1.83680585     3.89010500     9.14466858     0.90399584    -1.15943554    -1.52732249
O       4.73841118     0.67510072     4.71501257     0.90370247     1.15994539     1.52749938
O       1.06492583     3.89012342     4.52475490    -0.90370247    -1.15994539    -1.52749938
O       0.21086269     2.77682798     2.49589169     0.77934254    -0.39439632     0.72490789
O       5.59247438     1.78839611     6.74387577    -0.77934254     0.39439632    -0.72490789
O       3.11252516     1.78835353     2.12402142     0.77979222     0.39459249    -0.72502565
O       2.69081190     2.77687061     7.11574589    -0.77979222    -0.39459249     0.72502565
O       0.21085053     0.49421601     2.12399191     0.77934254    -0.39439632    -0.72490789
O       5.59248653     4.07100813     7.11577540    -0.77934254     0.39439632     0.72490789
O       2.69079975     0.49425859     6.74390523    -0.77979222    -0.39459249    -0.72502565
O       3.11253732     4.07096550     2.49586218     0.77979222     0.39459249     0.72502565
