# total energy = -4982.84857626 eV

CRYSTAL
PRIMVEC
        3.33766438     0.00000000     0.00000000
        0.00000000     3.13777159     0.00000000
        0.00000000    -0.00006180     4.46260842
PRIMCOORD
6 1
Ti      1.66883204     1.56885499     2.23130431     0.00000000     0.00000000     0.00000000
Ti      0.00000000     0.00000000     0.00000000     0.00000000     0.00000000     0.00000000
O       1.66883204     0.61149346     0.86969670    -0.00000000    -3.09849362    -3.28678791
O       1.66883204     2.52621652     3.59291196    -0.00000000     3.09849362     3.28678791
O       0.00000000     0.95733685     3.10100188     0.00000000     3.09882992    -3.29004319
O       0.00000000     2.18037313     1.36160674     0.00000000    -3.09882992     3.29004319
