# total energy = -19071.92276250 eV

CRYSTAL
PRIMVEC
        5.93400000     0.00000000     0.00000000
        0.00000000     9.29699974     0.00000000
        0.00000000     0.00000000     4.64899994
PRIMCOORD
22 1
Ti      4.35547898     7.16709899     2.22118102    -2.60343703    -1.06070232     1.08906622
Ti      4.53020500     2.40152998     2.21945898     0.01024868    -0.20614007    -0.93321952
Ti      1.32723999     7.05440302     2.57021999     2.42175588    -0.49669309     1.23859341
Ti      1.69354601     2.39873200     2.21820498    -0.64761536     0.50039317    -0.46530248
Ti      3.09925701     4.53430601     4.37716403    -1.82778635     0.37114711    -0.45545207
Ti      2.87515298     0.00794099     0.06616700     1.48121668     0.87159761     0.82737359
Ti      5.79757901     4.71960701     0.05891399     1.95227664    -0.77488424    -0.74311928
Ti      5.87921402     9.09236801     0.10302203    -0.59600559     0.52444533     0.22023512
O       4.39807499     5.37029701     0.98066699    -0.19768037     1.69205159     0.73859671
O       4.46531300     0.64121900     1.06697898     0.72954154     1.49072925    -0.42620807
O       1.42509000     0.64443602     1.11455000    -0.13887767     2.59456724    -0.24983110
O       4.41827200     8.09143602     4.04854898     0.03771784     1.17453667    -1.02071445
O       4.61989202     3.96115101     3.52071599     0.01006562    -1.95964799    -1.14075827
O       1.62215698     8.11411100     4.14655498    -2.07356076    -0.39632773    -1.76668766
O       1.56156402     4.10538801     3.45801002    -0.31943526    -1.80184108     0.25150026
O       2.98306402     6.21142599     3.09786897    -0.37481864    -1.92002008     0.82649479
O       3.17222102     1.62373700     3.18279801    -1.48004580    -1.33139330     1.81370621
O       5.83341600     6.12016202     3.29322402     0.40366026    -0.02071281     0.16581668
O       2.80989998     8.12306002     1.64403597     0.92943511    -1.27910501     0.32389227
O       3.07254800     2.99344600     1.02928902    -0.24248494     0.52188914     0.19469814
O       5.90015197     7.94282601     1.61580998     1.31307958    -0.11984071    -0.33011357
O       0.03065900     2.90015200     1.16844602     1.21274996     1.62595133    -0.15856693
