# total energy = -19928.75972557 eV

CRYSTAL
PRIMVEC
        7.36768357     0.00000000     0.00000000
        0.00002593     4.22231571     0.00000000
        0.00000000     0.00000000    11.14668944
PRIMCOORD
24 1
Ti      2.67044639     2.50214051     4.13534243     0.26497285     0.19739806     1.70129754
Ti      4.69726328     1.72017555     7.01134748    -0.26497285    -0.19739806    -1.70129754
Ti      6.35416191     1.72017704     1.43795802     0.26690015    -0.19755541    -1.70115870
Ti      1.01354776     2.50213914     9.70873200    -0.26690015     0.19755541     1.70115870
Ti      2.67043354     0.39098272     1.43800269     0.26497285     0.19739806    -1.70129754
Ti      4.69727613     3.83133346     9.70868733    -0.26497285    -0.19739806     1.70129754
Ti      1.01353491     0.39098105     7.01130280    -0.26690015     0.19755541    -1.70115870
Ti      6.35417476     3.83133507     4.13538711     0.26690015    -0.19755541     1.70115870
O       2.33192757     1.48674921     5.68807048     1.61177272     0.64885849    -0.91578923
O       5.03578210     2.73556679     5.45861942    -1.61177272    -0.64885849     0.91578923
O       1.35197567     1.48676622     0.11476140    -1.61181129     0.64847180    -0.91653383
O       6.01573406     2.73554984    11.03192816     1.61181129    -0.64847180     0.91653383
O       5.03576926     0.62440894     0.11472524    -1.61177272    -0.64885849    -0.91578923
O       2.33194042     3.59790712    11.03196432     1.61177272     0.64885849     0.91578923
O       6.01572121     0.62439192     5.68810664     1.61181129    -0.64847180    -0.91653383
O       1.35198835     3.59792414     5.45858321    -1.61181129     0.64847180     0.91653383
O       0.26770074     2.56825180     3.01099901    -1.59922547     0.58670359     0.69095672
O       7.10000893     1.65406426     8.13569090     1.59922547    -0.58670359    -0.69095672
O       3.95155162     1.65402478     2.56238135    -1.59961628    -0.58702601    -0.69087882
O       3.41615805     2.56829128     8.58430832     1.59961628     0.58702601     0.69087882
O       0.26768790     0.45709388     2.56234577    -1.59922547     0.58670359    -0.69095672
O       7.10002178     3.76522218     8.58434390     1.59922547    -0.58670359     0.69095672
O       3.41614521     0.45713336     8.13572642     1.59961628     0.58702601    -0.69087882
O       3.95156447     3.76518270     3.01096343    -1.59961628    -0.58702601     0.69087882
