# total energy = -4984.85129964 eV

CRYSTAL
PRIMVEC
        3.43990414     0.00000000     0.00000000
        0.68116198     3.37178867     0.00000000
       -2.06056440    -1.68591997     4.41242067
PRIMCOORD
6 1
Ti      0.51075291     2.52897045     1.10310529     0.00151695    -0.00147556    -0.00000746
Ti      1.54974882    -0.84310175     3.30931553    -0.00151695     0.00147556     0.00000746
O       0.17032654     0.84294224     0.71874732     0.00097985     0.00269580     1.62062632
O       1.89017508     0.84292637     3.69367354    -0.00097985    -0.00269580    -1.62062632
O      -0.17030396    -0.84292377     2.92495756     0.00273720     0.00095234     1.62118039
O       2.23080548     2.52879230     1.48746325    -0.00273720    -0.00095234    -1.62118039
