# total energy = -39035.50601590 eV

CRYSTAL
PRIMVEC
        7.60600008     0.00000000     0.00000000
        0.00000000     7.60600008     0.00000000
       -3.79573973    -3.79573973     9.71340985
PRIMCOORD
46 1
Ti      1.93730542     4.90467543     6.13446261    -0.58441659     0.21397140    -0.16557036
Ti      3.81165003     6.78139699     1.22012399    -0.38784437     1.36554553    -0.84702325
Ti      1.90850844     0.84682246     6.08825263     0.06604807    -0.23704731    -0.31835463
Ti      3.70682398     2.94111699     1.30730398    -0.03902525    -1.07835526    -0.38552189
Ti     -1.89445455     4.52545547     6.16890660     1.25891131     1.18190237    -0.92400391
Ti     -0.17954201     6.60800301     1.21995698     2.24254452     0.66271237    -0.92993776
Ti     -1.83920554     0.71650044     6.05438063     0.28839226    -0.60839420    -0.81945896
Ti     -0.20100099     2.89625302     1.08123898     1.14291774    -0.51032020     0.96171584
Ti      3.94755544     1.02212745     8.38307560    -0.41751877     0.53999331     0.39431095
Ti      5.71223198     2.83023298     3.63301402    -1.22884327    -0.27589438     1.10201019
Ti      3.95586744    -2.79269653     8.51233461    -0.80294913    -0.86121986     0.44389161
Ti      5.59265898    -1.07564902     3.54681602     0.73603460     0.03065836     2.31711477
Ti      0.09333946     1.00267548     8.46168562    -0.16336924     0.46499652     0.48784258
Ti      1.67947201     2.76663799     3.61678299    -0.02047113    -0.89103079    -0.04478761
Ti      0.10944846    -2.69222953     8.54031565     0.20350186     0.12744989     0.89234976
Ti      1.83806400    -1.01594602     3.47221701     0.06403155     1.27898854     1.45332483
O       2.03274646    -0.92905856     5.73356962     0.56296561    -1.17515142    -1.17425127
O       4.09024603     1.13949499     0.82171501    -0.80222948    -1.57623775    -0.68227590
O      -1.71228555     2.74778944     5.68834164    -0.17612295     0.99661112     0.38321561
O      -0.00222498     4.71775801     0.95926098     0.69273875     1.12486525    -1.42900038
O      -2.07932956    -1.16636053     5.65875962     0.35547494     2.66657821    -0.39594772
O      -0.30224599     0.89289099     0.77779102     0.68349306     0.78531778    -0.45100791
O       3.97556744     2.90634745     8.95356064    -0.08200099    -1.04244928    -0.55876597
O       5.64197401     4.75403898     4.06516699    -0.64274286    -0.51293347    -0.31490112
O       3.87870446    -0.90268257     8.89781764    -0.05419116     0.15627479    -0.38106103
O       5.90391897     1.01503801     4.18684903    -0.38971613    -2.26695175    -0.83706845
O       0.02560747     2.94041043     9.04953360    -0.09411192    -0.92980227    -0.86936898
O       1.96806502     4.50320500     4.16594298    -0.03040305     1.53734774     0.32529712
O       0.01574043    -0.79861055     9.00569365    -0.04085484     0.36512352     0.03626671
O       1.59049901     0.84046900     3.97509600     0.38676631     0.74766114     1.06203441
O       1.94641844     1.05897544     8.03782063     0.66026879     0.41548194     0.13538920
O       3.88742800     2.62910101     3.13389700    -0.99514302     0.64472904     0.78619813
O       1.92148144    -2.77726757     8.06467362     1.06051257    -0.15594672     0.00431971
O       3.76614502    -0.65985900     3.15759298     1.06524906    -0.98767782     1.07931248
O      -1.84172755     0.95272347     8.11777661    -0.14069133     0.22686857    -0.31527547
O      -0.18587901     3.11189900     3.28212902     2.11859545    -0.59915031    -0.66575939
O      -1.75527956    -2.69801254     8.14218364    -1.62296808    -0.58858024    -0.15690369
O      -0.07740302    -0.97764100     3.13677599     0.27865189    -0.47805362     0.50532815
O       3.88120747     4.62776745     6.44557264    -1.05896631    -0.49259707     1.30430441
O       5.70056002     6.39929699     1.54776397    -2.58774019    -0.11233771     0.53463693
O       3.87950145     0.99209045     6.38899163    -0.54700703     0.21985203     0.93867797
O       5.67599699     2.97564898     1.40860999    -1.29842275     0.62275381     1.10824718
O       0.01680947     4.98291444     6.43398662     0.90908894    -1.05500809     0.36384671
O       1.97339902     6.90639098     1.66206801    -1.31956674    -1.04917914    -0.86098615
O       0.06611847     0.56966143     6.56165762    -0.47703109     0.87781557    -0.66275402
O       1.72439800     2.69098501     1.83191999     1.22815936     0.23082113    -2.42964942
