# total energy = -19925.03598683 eV

CRYSTAL
PRIMVEC
        7.26675657     0.00000000     0.00000000
        0.00002432     3.72379050     0.00000000
        0.00000000     0.00000000    10.97891445
PRIMCOORD
24 1
Ti      2.63386428     2.20671487     4.07309896    -0.11766452     0.45321701     1.27530184
Ti      4.63291678     1.51707580     6.90581560     0.11766452    -0.45321701    -1.27530184
Ti      6.26711818     1.51707712     1.41631446    -0.11704052    -0.45300592    -1.27451148
Ti      0.99966294     2.20671372     9.56260026     0.11704052     0.45300592     1.27451148
Ti      2.63385217     0.34481968     1.41635849    -0.11766452     0.45321701    -1.27530184
Ti      4.63292894     3.37897110     9.56255623     0.11766452    -0.45321701     1.27530184
Ti      0.99965078     0.34481825     6.90577158     0.11704052     0.45300592    -1.27451148
Ti      6.26713029     3.37897253     4.07314298    -0.11704052    -0.45300592     1.27451148
O       2.29998299     1.31120999     5.60245602     2.98565480    -0.01983504     0.12783015
O       4.96679813     2.41258068     5.37645854    -2.98565480     0.01983504    -0.12783015
O       1.33345511     1.31122498     0.11303407    -2.98463227    -0.02037214     0.12828987
O       5.93332607     2.41256569    10.86588016     2.98463227     0.02037214    -0.12828987
O       4.96678597     0.55068542     0.11299846    -2.98565480     0.01983504     0.12783015
O       2.29999510     3.17310525    10.86591582     2.98565480    -0.01983504    -0.12783015
O       5.93331396     0.55067044     5.60249162     2.98463227     0.02037214     0.12828987
O       1.33346705     3.17312029     5.37642294    -2.98463227    -0.02037214    -0.12828987
O       0.26403297     2.26502051     2.96567868    -0.62969425     0.20095467     0.63178430
O       7.00274809     1.45877021     8.01323587     0.62969425    -0.20095467    -0.63178430
O       3.89742035     1.45873545     2.52381349    -0.62945540    -0.20076132    -0.63224504
O       3.36936071     2.26505527     8.45510091     0.62945540     0.20076132     0.63224504
O       0.26402087     0.40312520     2.52377843    -0.62969425     0.20095467    -0.63178430
O       7.00276025     3.32066547     8.45513596     0.62969425    -0.20095467     0.63178430
O       3.36934860     0.40315996     8.01327088     0.62945540     0.20076132    -0.63224504
O       3.89743252     3.32063071     2.96564363    -0.62945540    -0.20076132     0.63224504
