# total energy = -19959.11664722 eV

CRYSTAL
PRIMVEC
        5.38950813     0.00000000     0.00000000
        0.57220564     5.70745467     0.00000000
        0.00000000     0.00000000     9.65814252
PRIMCOORD
24 1
Ti      2.29252607     3.38223238     3.58310207     0.32042745    -0.89594057     0.58515604
Ti      3.66918787     2.32522233     6.07504077    -0.32042745     0.89594057    -0.58515604
Ti      4.88122007     2.32522427     1.24593077    -0.43301456    -0.14624672     0.05220524
Ti      1.08049388     3.38223072     8.41221224     0.43301456     0.14624672    -0.05220524
Ti      2.00642336     0.52850510     1.24596951     0.32042745    -0.89594057    -0.58515604
Ti      3.95529059     5.17894983     8.41217350    -0.32042745     0.89594057     0.58515604
Ti      0.79439109     0.52850300     6.07500208     0.43301456     0.14624672     0.05220524
Ti      5.16732279     5.17895188     3.58314082    -0.43301456    -0.14624672    -0.05220524
O       1.90729675     2.00969183     4.92847632     0.74148329     0.86325952    -0.27761240
O       4.05441719     3.69776294     4.72966652    -0.74148329    -0.86325952     0.27761240
O       1.19045790     2.00971491     0.09943600    -0.37345930     0.15369366     0.33480044
O       4.77125610     3.69773991     9.55870663     0.37345930    -0.15369366    -0.33480044
O       3.76831447     0.84403544     0.09940468    -0.74148329    -0.86325952    -0.27761240
O       2.19339947     4.86341933     9.55873795     0.74148329     0.86325952     0.27761240
O       4.48515338     0.84401241     4.92850769     0.37345930    -0.15369366     0.33480044
O       1.47656050     4.86344236     4.72963521    -0.37345930     0.15369366    -0.33480044
O       0.54386118     3.47159759     2.60890531     0.05942696     0.18975854     0.26709761
O       5.41785270     2.23585717     7.04923754    -0.05942696    -0.18975854    -0.26709761
O       3.11473056     2.23580402     2.22019682     0.45995253     0.33184007    -0.10004732
O       2.84698338     3.47165069     7.43794591    -0.45995253    -0.33184007     0.10004732
O       0.25775846     0.61787009     2.22016595     0.05942696     0.18975854    -0.26709761
O       5.70395542     5.08958462     7.43797673    -0.05942696    -0.18975854     0.26709761
O       2.56088066     0.61792324     7.04926836    -0.45995253    -0.33184007    -0.10004732
O       3.40083328     5.08953152     2.60887449     0.45995253     0.33184007     0.10004732
