# total energy = -39033.95271853 eV

CRYSTAL
PRIMVEC
        5.93200024     0.00000000     0.00000000
        0.00000000     9.29399984     0.00000000
        0.00000000     0.00000000     9.29399984
PRIMCOORD
46 1
Ti      4.46824898     7.01648599     7.02191403     0.17654435    -0.33137804    -0.19784620
Ti      4.48965901     7.06898900     2.32467899     0.82111501    -0.45275292    -0.45817770
Ti      4.47364098     2.29292301     7.21996602    -0.92826269     0.72001071    -1.51013415
Ti      4.22353302     2.60148902     1.97230500     0.88954366    -0.70884209     1.08704302
Ti      1.53267798     6.87056700     6.92148502    -1.10440543     0.93360750    -0.68875174
Ti      1.55837398     6.95956001     2.47458099    -0.64795655    -0.77860180    -0.72675317
Ti      1.51145897     2.43288801     6.86205101     0.08732395     0.34290713    -0.84401532
Ti      1.24660798     1.97716099     2.50522300     0.85466252     1.22865738    -0.19210030
Ti      3.09857199     4.63431300     4.63459002    -0.73074121     1.06134741     1.07069054
Ti      2.90810199     4.89724101     9.02798900     0.88499743    -1.46976858     3.19739294
Ti      2.93247801     0.03719899     4.72763299     0.71518938     0.14715534    -0.63393606
Ti      3.00074701     0.02104099     0.09859699    -0.58667968    -1.52257700    -1.34564339
Ti      0.03065302     4.52328902     4.40411899     1.19927120     0.28886586     0.74463777
Ti      0.07424801     4.69869800     9.28758298    -0.81778954     0.38780375     1.41951969
Ti      5.85960599     9.07574899     4.90448598     0.05707568     0.28501358    -1.22026710
Ti      0.04871600     0.05836000     0.00450901     0.71396450    -2.07094440    -0.60273545
O       4.40587798     5.59713201     5.58895299     0.06303422    -0.46643814    -0.61409716
O       4.48085700     5.65609998     0.93837700    -0.83104153    -1.01578667    -1.20314791
O       4.46243300     0.69262603     5.66464598    -0.69001930     1.82229087    -0.03593247
O       4.46339700     0.93622399     0.87776001     0.34392117     1.32249317     0.43175266
O       1.31027298     5.47260602     5.52827298     0.95959571     0.50237343    -0.31498237
O       1.51958899     5.75288703     0.71581299     0.91598258    -1.28959383     0.53432223
O       1.45908202     0.91220802     5.63771001    -0.10134573    -0.55580792    -1.64346363
O       1.52585799     0.82347500     0.91078300    -1.23700755     1.37920118     0.79874820
O       4.35777000     8.35225299     8.48502001     0.97008864    -0.10899425    -0.28443791
O       4.45807200     8.20785401     3.95571298     0.27280932     0.99930307    -0.76222001
O       4.47564698     3.69928601     8.59910401    -0.73971205    -0.78898958    -0.69429787
O       4.37184003     3.80979002     3.61447202    -0.21235623    -1.34341887    -1.03146012
O       1.55338500     8.45347703     8.27162003    -0.71291986    -0.12081927     1.12864092
O       1.28004400     8.34917100     3.61694598     0.55465092     1.77837564     2.50181260
O       1.60926400     3.66441201     8.35458999    -0.46388272     1.19003760     0.73125055
O       1.53141298     3.52331097     3.51771598    -0.35078242     0.94637277     1.37180154
O       3.04701901     6.10281099     7.79784001    -1.04089685    -0.02570744    -0.61988086
O       3.08633302     6.15120102     3.33772602    -1.08111251    -0.81857450    -0.20265031
O       2.86508798     1.41813502     7.79474602     1.39851660     0.24500848     0.69367078
O       3.01681199     1.34415800     3.12714602    -0.15336687     0.39090270    -0.00135086
O       0.08866402     6.07996302     7.96434399    -0.83533090    -0.07637105    -0.67883576
O       5.88126098     5.86538000     3.00683498     1.07836246     0.20991574     1.36202518
O       0.04696803     1.43887702     7.82916000     0.11681683    -0.17977880     0.77808373
O       2.91663000     7.94639901     6.07143400    -0.12461473    -0.83104179     0.03034957
O       2.95400399     7.94091599     1.61851503     0.51548349     0.73383785    -1.45151837
O       3.14516297     3.30201402     6.02816900    -1.09211812    -0.95788901     0.70471444
O       5.83431899     7.83741199     6.20498299     2.29254812     0.32552749    -0.50742565
O       0.15652798     7.87231600     1.49806799    -1.60799191     1.04368392    -1.19551533
O       5.87645801     3.24270601     5.91756799     0.27566196    -1.00161783     1.16060925
O       0.02578702     3.30730601     1.48255198    -0.06682711    -1.36899981    -0.08548921
