# total energy = -19887.31678945 eV

CRYSTAL
PRIMVEC
        7.05455051     0.00000000     0.00000000
        0.00002221     2.84792854     0.00000000
        0.00000000     0.00000000    10.91868531
PRIMCOORD
24 1
Ti      2.55694852     1.68767978     4.05075439    -1.09267297     0.64948712    -1.18318329
Ti      4.49762441     1.16024866     6.86793102     1.09267297    -0.64948712     1.18318329
Ti      6.08410337     1.16024963     1.40854469    -1.09141570    -0.64946090     1.18543481
Ti      0.97046955     1.68767896     9.51014082     1.09141570     0.64946090    -1.18543481
Ti      2.55693751     0.26371556     1.40858846    -1.09275936     0.64945319     1.18226412
Ti      4.49763541     2.58421298     9.51009705     1.09275936    -0.64945319    -1.18226412
Ti      0.97045855     0.26371454     6.86788725     1.09127660     0.64986662     1.18573640
Ti      6.08411438     2.58421400     4.05079817    -1.09127660    -0.64986662    -1.18573640
O       2.23281769     1.00280403     5.57172153     8.29744946    -1.49587377     4.26534448
O       4.82175528     1.84512441     5.34696389    -8.29744946     1.49587377    -4.26534448
O       1.29451461     1.00281550     0.11241399    -8.29594331    -1.49670064     4.26557923
O       5.76005842     1.84511293    10.80627113     8.29594331     1.49670064    -4.26557923
O       4.82174427     0.42116014     0.11237857    -8.29729391     1.49623913     4.26618472
O       2.23282865     2.42676830    10.80630654     8.29729391    -1.49623913    -4.26618472
O       5.76004741     0.42114867     5.57175699     8.29494392     1.49689990     4.26566844
O       1.29452546     2.42677982     5.34692842    -8.29494392    -1.49689990    -4.26566844
O       0.25632167     1.73227157     2.94940929     2.67863977    -1.05875702     2.23969342
O       6.79825126     1.11565687     7.96927613    -2.67863977     1.05875702    -2.23969342
O       3.78360621     1.11563040     2.50996809     2.68031639     1.05901465    -2.23926173
O       3.27096676     1.73229809     8.40871712    -2.68031639    -1.05901465     2.23926173
O       0.25631066     0.30830730     2.50993322     2.67825102    -1.05830733    -2.24004181
O       6.79826227     2.53962114     8.40875199    -2.67825102     1.05830733     2.24004181
O       3.27095576     0.30833377     7.96931090    -2.68032410    -1.05886269    -2.23944942
O       3.78361722     2.53959467     2.94937447     2.68032410     1.05886269     2.23944942
