# total energy = -19943.78518937 eV

CRYSTAL
PRIMVEC
        6.57708744     0.00000000     0.00000000
        0.00002779     5.17392046     0.00000000
        0.00000000     0.00000000    10.47173640
PRIMCOORD
24 1
Ti      2.38389434     3.06606051     3.88493952     0.38253530    -0.23733451     0.38100112
Ti      4.19322094     2.10786012     6.58679694    -0.38253530     0.23733451    -0.38100112
Ti      5.67232447     2.10786192     1.35088687     0.38336859     0.23719541    -0.38071907
Ti      0.90479081     3.06605895     9.12084970    -0.38336859    -0.23719541     0.38071907
Ti      2.38388057     0.47910040     1.35092886     0.38210052    -0.24763692    -0.38127469
Ti      4.19323472     4.69482041     9.12080772    -0.38210052     0.24763692     0.38127469
Ti      0.90477704     0.47909843     6.58675496    -0.38299398    -0.24743740    -0.38111605
Ti      5.67233825     4.69482239     3.88498150     0.38299398     0.24743740     0.38111605
O       2.08169952     1.82182538     5.34364693     0.89381272     0.86820015    -0.56608076
O       4.49541582     3.35209525     5.12808953    -0.89381272    -0.86820015     0.56608076
O       1.20690228     1.82184625     0.10781241    -0.89386954     0.86896274    -0.56712103
O       5.37021312     3.35207444    10.36392375     0.89386954    -0.86896274     0.56712103
O       4.49540204     0.76513496     0.10777844    -0.89410943    -0.86888227    -0.56646823
O       2.08171330     4.40878567    10.36395773     0.89410943     0.86888227     0.56646823
O       5.37019934     0.76511415     5.34368091     0.89389577    -0.86894320    -0.56705367
O       1.20691594     4.40880654     5.12805555    -0.89389577     0.86894320     0.56705367
O       0.23897771     3.14707171     2.82867725    -1.01558484     0.15835559     0.22841406
O       6.33813763     2.02684893     7.64305921     1.01558484    -0.15835559    -0.22841406
O       3.52752852     2.02680067     2.40722428    -1.01562675    -0.15809076    -0.22911314
O       3.04958682     3.14712003     8.06451200     1.01562675     0.15809076     0.22911314
O       0.23896394     0.56011148     2.40719083    -1.01626053     0.15798124    -0.22920030
O       6.33815140     4.61380921     8.06454545     1.01626053    -0.15798124     0.22920030
O       3.04957304     0.56015974     7.64309260     1.01559487     0.15790127    -0.22873853
O       3.52754230     4.61376090     2.82864380    -1.01559487    -0.15790127     0.22873853
