# total energy = -19516.56277734 eV

CRYSTAL
PRIMVEC
        5.17600016     0.00000000     0.00000000
        0.00000000     5.50899976     0.00000000
        0.00000000     0.00000000     9.26300011
PRIMCOORD
23 1
Ti      1.79607601     3.19473402     3.30894402     0.93542424     0.13151095     2.86888657
Ti      3.25049602     2.23363500     5.96566697     1.63884130     1.06274917    -3.32367966
Ti      4.48171400     2.04003698     1.35489601    -1.27375120    -1.46907927     1.69687087
Ti      1.07494198     3.28723902     7.82199002    -1.85976651     1.02457291    -0.67928879
Ti      1.99141501     0.35989398     1.36771200    -0.15091687    -1.09016331    -0.86847809
Ti      3.26134098     5.32736703     7.92025803     1.47434463    -2.53230204     0.38381057
Ti      0.67943401     0.51784000     5.97855900    -1.80720749    -0.79486584    -2.51999622
Ti      4.48811598     4.79926797     3.46087600    -0.36384877     0.72627649     3.46190890
O       1.83357700     1.99702599     4.70721399    -1.91092660    -1.84907226     0.43597467
O       3.53304799     3.44945598     4.34183001     0.28064424     0.31227165     0.41787487
O       5.01186599     2.67588901     9.14114202     1.56074993     0.97650740    -0.89344454
O       3.46809900     0.77506099     0.20082001     0.86852283     0.40087678     0.24507302
O       1.85415300     4.65519301     9.00597999    -0.38320996    -0.77905817     1.10412955
O       4.20328998     0.65786702     4.95840798    -0.05969692     0.09101297    -0.35002574
O       0.88432800     4.65869902     4.50571102     0.68682136     0.01950465     0.30518466
O       0.03507900     3.31030300     2.54631901     0.92585948    -0.64935934    -1.13762821
O       5.07048603     2.17746299     6.64693400     0.43442918     0.35040909     0.47727689
O       2.57054199     2.06509400     1.97167300     0.22594297     0.46132267    -0.09432815
O       2.60663400     3.83880899     6.73218303    -0.07168341    -0.14339305     0.88814138
O       0.25802900     0.47530701     2.15128100    -0.40799334     1.31117877    -1.29573286
O       5.05860298     4.84984499     7.34918100     0.50065953     0.10212246    -0.28281888
O       2.27145202     1.01598799     7.07297302    -1.30848528     1.77134752    -0.12650321
O       2.73813402     4.71842001     2.49675399     0.06524639     0.56562954    -0.71320706
