# total energy = -19889.00133119 eV

CRYSTAL
PRIMVEC
        7.84126504     0.00000000     0.00000000
        0.00002438     2.78182575     0.00000000
        0.00000000     0.00000000    12.47479132
PRIMCOORD
24 1
Ti      2.84209570     1.64850727     4.62805871    -0.37702028     0.47166622     1.02488041
Ti      4.99919340     1.13331821     7.84673298     0.37702028    -0.47166622    -1.02488041
Ti      6.76259447     1.13331911     1.60928730    -0.37584786    -0.47142659    -1.02512646
Ti      1.07869469     1.64850648    10.86550451     0.37584786     0.47142659     1.02512646
Ti      2.84208383     0.25759445     1.60933732    -0.37702028     0.47166622    -1.02488041
Ti      4.99920533     2.52423114    10.86545448     0.37702028    -0.47166622     1.02488041
Ti      1.07868277     0.25759350     7.84668296     0.37584786     0.47142659    -1.02512646
Ti      6.76260639     2.52423209     4.62810874    -0.37584786    -0.47142659     1.02512646
O       2.48181836     0.97952805     6.36579067     5.76139618    -0.33359099     1.01817703
O       5.35947080     1.80229748     6.10900102    -5.76139618     0.33359099    -1.01817703
O       1.43887694     0.97953934     0.12843499    -5.76147408    -0.33386764     1.01804564
O       6.40241227     1.80228619    12.34635633     5.76147408     0.33386764    -1.01804564
O       5.35945888     0.41138456     0.12839448    -5.76139618     0.33359099     1.01817703
O       2.48183028     2.37044092    12.34639684     5.76139618    -0.33359099    -1.01817703
O       6.40240035     0.41137332     6.36583113     5.76147408     0.33386764     1.01804564
O       1.43888870     2.37045222     6.10896056    -5.76147408    -0.33386764    -1.01804564
O       0.28490593     1.69206411     3.36975241     0.24107135     0.03212466     3.78390910
O       7.55638322     1.08976137     9.10503923    -0.24107135    -0.03212466    -3.78390910
O       4.20554882     1.08973559     2.86768306     0.24192830    -0.03193131    -3.78434618
O       3.63574033     1.69208995     9.60710842    -0.24192830     0.03193131     3.78434618
O       0.28489401     0.30115124     2.86764325     0.24107135     0.03212466    -3.78390910
O       7.55639515     2.48067430     9.60714824    -0.24107135    -0.03212466     3.78390910
O       3.63572846     0.30117702     9.10507899    -0.24192830     0.03193131    -3.78434618
O       4.20556069     2.48064846     3.36971260     0.24192830    -0.03193131     3.78434618
