# total energy = -19929.62336617 eV

CRYSTAL
PRIMVEC
        6.04787369     0.00000000     0.00000000
        2.75700029     5.81643444     0.00000000
        0.00000000     0.00000000    11.12346898
PRIMCOORD
24 1
Ti      3.82585909     3.44681363     4.12672763     0.59207925    -2.87272831     0.70995461
Ti      4.97901469     2.36962073     6.99674141    -0.59207925     2.87272831    -0.70995461
Ti      6.33910567     2.36962270     1.43496246    -1.71054811    -1.04101537     0.61758409
Ti      2.46576822     3.44681189     9.68850676     1.71054811     1.04101537    -0.61758409
Ti      2.44735908     0.53859650     1.43500704     0.59207925    -2.87272831    -0.70995461
Ti      6.35751474     5.27783804     9.68846218    -0.59207925     2.87272831     0.70995461
Ti      1.08726807     0.53859436     6.99669683     1.71054811     1.04101537     0.61758409
Ti      7.71760581     5.27784017     4.12677227    -1.71054811    -1.04101537    -0.61758409
O       2.88497682     2.04806542     5.67622108     1.71404764     2.10863010    -1.01089823
O       5.91989696     3.76836894     5.44724802    -1.71404764    -2.10863010     1.01089823
O       2.08057977     2.04808891     0.11452237     0.28593635    -1.08608606     1.55868302
O       6.72429410     3.76834555    11.00894644    -0.28593635     1.08608606    -1.55868302
O       4.54139693     0.86015170     0.11448623    -1.71404764    -2.10863010    -1.01089823
O       4.26347686     4.95628272    11.00898251     1.71404764     2.10863010     1.01089823
O       5.34579405     0.86012825     5.67625716    -0.28593635     1.08608606     1.55868302
O       3.45907968     4.95630619     5.44721188     0.28593635    -1.08608606    -1.55868302
O       1.89669706     3.53788518     3.00472649     0.65748043     2.65608296     2.49018761
O       6.90817666     2.27854920     8.11874262    -0.65748043    -2.65608296    -2.49018761
O       4.32369272     2.27849507     2.55704342     0.96278413     1.79315537     1.25607332
O       4.48118106     3.53793929     8.56642545    -0.96278413    -1.79315537    -1.25607332
O       0.51819702     0.62966787     2.55700788     0.65748043     2.65608296    -2.49018761
O       8.28667670     5.18676650     8.56646098    -0.65748043    -2.65608296     2.49018761
O       3.10268102     0.62972199     8.11877803    -0.96278413    -1.79315537     1.25607332
O       5.70219276     5.18671237     3.00469095     0.96278413     1.79315537    -1.25607332
