# total energy = -19073.90106896 eV

CRYSTAL
PRIMVEC
        5.93400000     0.00000000     0.00000000
        0.00000000     9.29699974     0.00000000
        0.00000000     0.00000000     4.64899994
PRIMCOORD
22 1
Ti      4.47224501     6.87857399     2.43000098    -1.03308223     0.48721857    -1.45416841
Ti      4.44713100     2.39691899     2.20281498     0.07850301    -0.36273163    -0.67855474
Ti      1.50157701     7.23706702     2.58154401     0.84593928     0.11640494    -1.12967270
Ti      1.55656901     2.35468498     2.21298698    -0.05923310     0.43447289    -0.16127611
Ti      2.99996801     4.60034898     4.47790800    -0.63078697     0.27488420     1.26466492
Ti      3.01977802     0.09626099     0.07665201     0.30565131     0.12755762     0.68676042
Ti      5.76776500     4.56743801     4.40233799     0.42444944    -1.30995955     1.23158124
Ti      5.91648000     9.08681700     0.20725698    -0.26020885     0.54266392     1.39685618
O       4.34284302     5.52397601     0.93507599    -0.31633837    -0.25929456    -0.33604177
O       4.50131398     0.64768401     1.12585497     0.74698905     2.33368219     0.11426887
O       1.47818600     0.68020100     1.16780402    -0.58833444     1.60099516    -0.22725398
O       4.55580500     8.35219298     3.92186802    -1.29351400    -0.13171844    -1.79381460
O       4.28455197     3.97829202     3.43973103     0.96648986    -1.66559904    -1.20177623
O       1.49945099     8.35214302     3.97005500     0.40334607     0.30386671    -0.83344011
O       1.48154702     3.96177999     3.48039301    -0.04956189    -0.56264243     0.75728555
O       2.92785300     6.19675498     3.28677298    -1.02280116    -0.57054677     0.33144412
O       3.04436497     1.54933701     3.15297300    -0.28995190    -0.84454317     1.83074980
O       5.92925000     6.05463501     3.26186302     0.98577006     0.42300833     0.20798227
O       3.00735998     8.10434599     1.60720000    -0.72573245    -1.99516265     0.20205150
O       3.00242598     2.95972101     1.04092599    -0.27509888     1.37913485    -0.31346824
O       5.86633601     7.63448300     1.35185599     1.62838077     0.01618510     0.67114405
O       0.02052599     3.31964600     1.30149901     0.15912589    -0.33787625    -0.56532229
