# total energy = -39040.39194820 eV

CRYSTAL
PRIMVEC
        7.60629642    -0.00000847    -0.00005503
       -0.00000847     7.60629642    -0.00005503
       -3.80314186    -3.80314186     9.70738094
PRIMCOORD
46 1
Ti      1.90152169     4.71077776     6.06965259    -0.00006685     0.01606426     0.00783801
Ti      3.83501363     6.66109857     1.18755810    -0.01242512     0.01200706     0.00503062
Ti      1.90152791     0.97711088     5.92689640     0.00014038    -0.00700240    -0.01757838
Ti      3.79609923     2.84636937     1.24632045     0.01747528    -0.01605757    -0.00685096
Ti     -1.90165523     4.78460948     6.06726537     0.00004654     0.01516694    -0.00048568
Ti     -0.03196312     6.66105562     1.18761651     0.01231533     0.01193481     0.00500594
Ti     -1.90173876     0.94756945     6.13101305     0.00008150     0.03583913     0.01211376
Ti      0.00677693     2.84632790     1.24639415    -0.01742154    -0.01603932    -0.00691858
Ti      3.88722885     0.94461040     8.54439678    -0.00443953    -0.00014064    -0.00027614
Ti      5.70485593     2.83353757     3.66286950    -0.00018281     0.02008058     0.00782901
Ti      3.78455395    -2.83681303     8.49008936     0.02273345     0.00496223    -0.03270676
Ti      5.70472144    -0.93622319     3.64434534     0.00011287    -0.04003209     0.02290622
Ti     -0.08407277     0.94468537     8.54435156     0.00428243    -0.00017252    -0.00011879
Ti      1.90168989     2.91573917     3.68922522    -0.00004011    -0.02144815     0.01145324
Ti      0.01891177    -2.83674833     8.49006816    -0.02285712     0.00507382    -0.03266819
Ti      1.90154518    -0.97097950     3.47637254     0.00011724     0.02422777     0.04259471
O       1.90165318     2.85272111     5.65122190    -0.00009616    -0.02713106    -0.01599021
O       3.84623065     4.74897830     0.80514022     0.01247320    -0.00600199     0.01198803
O       3.77637408     0.95304649     0.76480007    -0.00981879     0.01060375    -0.01867239
O      -1.90153367     2.82596437     5.72916898    -0.00000206     0.00714510    -0.02063594
O      -0.04318447     4.74894688     0.80520001    -0.01242615    -0.00593437     0.01191758
O      -1.90155828    -0.93511349     5.66564386     0.00003342    -0.01710016     0.01010932
O       0.02683038     0.95301982     0.76486691     0.00973574     0.01059141    -0.01867239
O       3.65459495     2.82592155     8.85798230    -0.00164242     0.01458973     0.01371324
O       5.70471718     4.74977326     4.09372800    -0.00003882     0.00233713     0.00903357
O       3.69893362    -0.92936851     8.91418931     0.00800128    -0.00245900     0.01762646
O       5.70470000     0.95180160     4.09926123    -0.00000977    -0.00029208    -0.01506796
O       0.14861950     2.82594255     8.85797728     0.00179309     0.01472574     0.01371633
O       1.90145197     4.83829738     4.06984816     0.00006145    -0.02261903     0.00618196
O       0.10429448    -0.92931390     8.91420651    -0.00782053    -0.00260941     0.01766323
O       1.90150761     0.86529644     4.04540885    -0.00000103    -0.00373376    -0.04353291
O       3.78728488     2.85309213     3.25887347     0.02763423     0.00225306    -0.01325687
O       1.90163621    -2.81083553     8.06140404     0.00003420     0.00051011     0.01792548
O       3.81849455    -0.95320986     3.17919354     0.00860034     0.00385023    -0.00537464
O      -1.90157185     0.99255334     8.11169306    -0.00000720     0.01438456    -0.01230633
O       0.01584010     2.85303254     3.25889637    -0.02769953     0.00227877    -0.01321985
O      -1.90154140    -2.87989130     8.08442834     0.00000591     0.00733793    -0.01851838
O      -0.01539451    -0.95319491     3.17923648    -0.00856692     0.00381783    -0.00540420
O       3.78419640     4.87164321     6.46390179     0.01060503    -0.01418401     0.00300768
O       5.70469140     6.69130722     1.62318039     0.00005785     0.01333529     0.02097712
O       3.66726448     0.78872039     6.54059048     0.00882326    -0.01572590     0.01981524
O       5.70470080     2.81517788     1.69184185    -0.00007173    -0.01240609     0.01067162
O       0.01898760     4.87165459     6.46393548    -0.01064951    -0.01424469     0.00312492
O       1.90155984     6.63085592     1.52786199    -0.00003651    -0.00821853    -0.00531242
O       0.13595439     0.78868783     6.54073967    -0.00877749    -0.01570662     0.01953936
O       1.90155538     2.87722361     1.63026397    -0.00006633     0.01614242    -0.01821473
