# total energy = -19920.93900353 eV

CRYSTAL
PRIMVEC
        6.84752062     0.00000000     0.00000000
        0.00002292     3.50895644     0.00000000
        0.00000000     0.00000000    10.34551554
PRIMCOORD
24 1
Ti      2.48191057     2.07940440     3.83811248    -0.51777486     1.09013066    -0.38949836
Ti      4.36563312     1.42955219     6.50740316     0.51777486    -1.09013066     0.38949836
Ti      5.90555367     1.42955344     1.33460401    -0.51757894    -1.08985684     0.39082454
Ti      0.94199008     2.07940331     9.01091179     0.51757894     1.08985684    -0.39082454
Ti      2.48189916     0.32492623     1.33464550    -0.51777486     1.09013066     0.38949836
Ti      4.36564458     3.18403046     9.01087030     0.51777486    -1.09013066    -0.38949836
Ti      0.94197861     0.32492489     6.50736168     0.51757894     1.08985684     0.39082454
Ti      5.90556508     3.18403181     3.83815396    -0.51757894    -1.08985684    -0.39082454
O       2.16729166     1.23556326     5.27923740     4.32697591    -1.11143380     2.25764436
O       4.68025208     2.27339333     5.06627824    -4.32697591     1.11143380    -2.25764436
O       1.25652500     1.23557738     0.10651287    -4.32680261    -1.11101060     2.25761196
O       5.59101879     2.27337921    10.23900246     4.32680261     1.11101060    -2.25761196
O       4.68024062     0.51891511     0.10647932    -4.32697591     1.11143380     2.25764436
O       2.16730307     2.99004148    10.23903606     4.32697591    -1.11143380    -2.25764436
O       5.59100738     0.51890099     5.27927095     4.32680261     1.11101060     2.25761196
O       1.25653626     2.99005565     5.06624469    -4.32680261    -1.11101060    -2.25761196
O       0.24880030     2.13434625     2.79458184     1.07564043    -0.32258435     0.97357583
O       6.59874339     1.37461039     7.55093380    -1.07564043     0.32258435    -0.97357583
O       3.67256918     1.37457764     2.37820886     1.07753662     0.32294328    -0.97488143
O       3.17497451     2.13437901     7.96730662    -1.07753662    -0.32294328     0.97488143
O       0.24878889     0.37986798     2.37817583     1.07564043    -0.32258435    -0.97357583
O       6.59875485     3.12908861     7.96733966    -1.07564043     0.32258435     0.97357583
O       3.17496310     0.37990074     7.55096679    -1.07753662    -0.32294328    -0.97488143
O       3.67258064     3.12905586     2.79454880     1.07753662     0.32294328     0.97488143
