# total energy = -19961.86731501 eV

CRYSTAL
PRIMVEC
        7.60600008     0.00000000     0.00000000
        0.00000000     7.60600008     0.00000000
       -1.89786986    -1.89786986     4.85670466
PRIMCOORD
24 1
Ti      3.83423700     6.72053800     1.16089900     0.14488763    -1.35027369     0.22776537
Ti      3.83338000     2.79152699     1.16027600    -0.91010555     1.02173338     0.97349149
Ti     -0.02903802     6.62161901     1.24241600    -0.30179209     0.12762781    -1.05796486
Ti     -0.06150199     2.83723198     1.28583499     0.86747022     0.11313655    -0.15361139
Ti      5.69649520     2.82666722     3.68627079    -0.31345822     0.17018935     0.04628862
Ti      5.69397520    -0.93732579     3.64566480    -0.32678348    -0.14644932     0.05714639
Ti      1.95807224     2.82821925     3.66514281    -0.15737934     0.42113426    -0.44843013
Ti      1.93996824    -0.94532679     3.59887680     0.30561815    -0.50826023    -0.81156310
O       3.89401398     4.79106001     0.74791902    -0.27949393    -0.95697755     0.66333586
O       3.85323399     0.93033599     0.71448300    -0.17805924     0.54156066     0.16161832
O      -0.19969498     4.71298700     0.80732101     0.62257281     1.15319085     0.26082026
O      -0.05813002     1.03428403     0.71022302     0.23017758    -1.63454242     1.10107122
O       5.52252125     4.75352224     4.02292780     0.48194370     0.06580792     0.53937959
O       5.69428123     0.96133821     4.14122580     0.34751480     0.29317375    -0.76569229
O       2.05813723     4.72356822     4.02616382    -0.36892413     1.09936735    -0.19568802
O       1.86909321     0.89829823     4.03706879    -0.29081527     0.24472720     0.24981362
O       3.74726122     2.68572023     3.18692580     1.07887694     0.09970793     0.07058864
O       3.83725623    -0.81124677     3.15973080    -0.79511806    -0.26302112     0.17776280
O      -0.04141876     2.92400022     3.26576983     0.18421370    -0.21309748     0.16426013
O      -0.03395778    -1.02609279     3.13937383     0.77003257    -0.01136171     0.88409960
O       5.70776001     6.76228199     1.63394800    -0.04352931     0.01273751    -0.33936055
O       5.67682901     2.82433498     1.70866201    -0.44180362    -0.17738433    -0.50141595
O       1.91171499     6.71969100     1.61475300    -0.23340972    -0.20709138    -0.31389067
O       1.91699698     2.83813402     1.69663498    -0.39263588     0.10436446    -0.98982495
