# total energy = -19890.66511949 eV

CRYSTAL
PRIMVEC
        8.71337920     0.00000000     0.00000000
        0.00003066     4.99351493     0.00000000
        0.00000000     0.00000000    13.18261446
PRIMCOORD
24 1
Ti      3.15819915     2.95915248     4.89065612     0.46598742    -0.58509177     2.55647453
Ti      5.55521092     2.03436286     8.29195889    -0.46598742     0.58509177    -2.55647453
Ti      7.51473943     2.03436463     1.70059875     0.45035665     0.58668482    -2.55845608
Ti      1.19867064     2.95915085    11.48201639    -0.45035665    -0.58668482     2.55845608
Ti      3.15818396     0.46239508     1.70065159     0.46392617    -0.59192936    -2.55671673
Ti      5.55522611     4.53112039    11.48196355    -0.46392617     0.59192936     2.55671673
Ti      1.19865545     0.46239311     8.29190605    -0.44993011    -0.59107035    -2.55794083
Ti      7.51475462     4.53112230     4.89070895     0.44993011     0.59107035     2.55794083
O       2.75785042     1.75830158     6.72698747     0.65425807     1.45563857    -2.27286606
O       5.95555966     3.23521370     6.45562754    -0.65425807    -1.45563857     2.27286606
O       1.59891187     1.75832170     0.13572238    -0.65553899     1.45623146    -2.27413028
O       7.11449827     3.23519365    13.04689221     0.65553899    -1.45623146     2.27413028
O       5.95554446     0.73845623     0.13567962    -0.65390634    -1.45538968    -2.27200397
O       2.75786561     4.25505911    13.04693497     0.65390634     1.45538968     2.27200397
O       7.11448308     0.73843611     6.72703023     0.65512864    -1.45641247    -2.27420510
O       1.59892686     4.25507923     6.45558471    -0.65512864     1.45641247     2.27420510
O       0.31659586     3.03733888     3.56095316    -2.29860179     0.73643724     0.10435983
O       8.39681422     1.95617646     9.62166184     2.29860179    -0.73643724    -0.10435983
O       4.67329621     1.95612976     3.03039621    -2.29694703    -0.73684579    -0.10457709
O       4.04011386     3.03738558    10.15221852     2.29694703     0.73684579     0.10457709
O       0.31658066     0.54058135     3.03035413    -2.29863624     0.73664755    -0.10455832
O       8.39682941     4.45293399    10.15226060     2.29863624    -0.73664755     0.10455832
O       4.04009867     0.54062804     9.62170385     2.29683878     0.73669641    -0.10496995
O       4.67331140     4.45288730     3.56091109    -2.29683878    -0.73669641     0.10496995
