# total energy = -19906.92854752 eV

CRYSTAL
PRIMVEC
        6.12291512     0.00000000     0.00000000
        0.00002182     3.50895644     0.00000000
        0.00000000     0.00000000     9.26345881
PRIMCOORD
24 1
Ti      2.21927525     2.07940427     3.43667727    -1.25507470     2.92898227    -4.49582520
Ti      3.90366184     1.42955197     5.82678192     1.25507470    -2.92898227     4.49582520
Ti      5.28062782     1.42955311     1.19501534    -1.25083855    -2.92936022     4.49946203
Ti      0.84230926     2.07940323     8.06844395     1.25083855     2.92936022    -4.49946203
Ti      2.21926443     0.32492610     1.19505247    -1.25507470     2.92898227     4.49582520
Ti      3.90367265     3.18403024     8.06840682     1.25507470    -2.92898227    -4.49582520
Ti      0.84229845     0.32492482     5.82674479     1.25083855     2.92936022     4.49946203
Ti      5.28063863     3.18403147     3.43671440    -1.25083855    -2.92936022    -4.49946203
O       1.93794904     1.23556312     4.72707227     4.86818484    -3.47331663     6.05915137
O       4.18498805     2.27339308     4.53638692    -4.86818484     3.47331663    -6.05915137
O       1.12355979     1.23557732     0.09537249    -4.86866409    -3.47437619     6.06104834
O       4.99937734     2.27337893     9.16808642     4.86866409     3.47437619    -6.06104834
O       4.18497723     0.51891486     0.09534244    -4.86818484     3.47331663     6.05915137
O       1.93795985     2.99004138     9.16811647     4.86818484    -3.47331663    -6.05915137
O       4.99936653     0.51890066     4.72710232     4.86866409     3.47437619     6.06104834
O       1.12357046     2.99005559     4.53635682    -4.86866409    -3.47437619    -6.06104834
O       0.22247293     2.13434623     2.50229141     4.52177792    -1.11572755     2.14046732
O       5.90046415     1.37461002     6.76116778    -4.52177792     1.11572755    -2.14046732
O       3.28393799     1.37457741     2.12946761     4.52189722     1.11590264    -2.14175852
O       2.83899910     2.13437883     7.13399139    -4.52189722    -1.11590264     2.14175852
O       0.22246212     0.37986796     2.12943804     4.52177792    -1.11572755    -2.14046732
O       5.90047497     3.12908829     7.13402096    -4.52177792     1.11572755     2.14046732
O       2.83898828     0.37990056     6.76119730    -4.52189722    -1.11590264    -2.14175852
O       3.28394880     3.12905568     2.50226184     4.52189722     1.11590264     2.14175852
