# total energy = -19921.05287152 eV

CRYSTAL
PRIMVEC
        7.70410748     0.00000000     0.00000000
        0.00002711     4.41511552     0.00000000
        0.00000000     0.00000000    11.65567070
PRIMCOORD
24 1
Ti      2.79238458     2.61639351     4.32417085     0.36469723    -0.13780938     2.22040011
Ti      4.91175019     1.79872238     7.33150033    -0.36469723     0.13780938    -2.22040011
Ti      6.64430629     1.79872394     1.50361820     0.36468361     0.13757027    -2.22004479
Ti      1.05982848     2.61639207    10.15205310    -0.36468361    -0.13757027     2.22004479
Ti      2.79237115     0.40883581     1.50366492     0.36469723    -0.13780938    -2.22040011
Ti      4.91176363     4.00628019    10.15200639    -0.36469723     0.13780938     2.22040011
Ti      1.05981505     0.40883406     7.33145361    -0.36468361    -0.13757027    -2.22004479
Ti      6.64431973     4.00628188     4.32421757     0.36468361     0.13757027     2.22004479
O       2.43840828     1.55463730     5.94779973     1.25307901     1.04699628    -1.57921123
O       5.26572649     2.86047852     5.70787145    -1.25307901    -1.04699628     1.57921123
O       1.41370972     1.55465509     0.12000165    -1.25238250     1.04785322    -1.58089119
O       6.29042511     2.86046079    11.53566917     1.25238250    -1.04785322     1.58089119
O       5.26571306     0.65292076     0.11996384    -1.25307901    -1.04699628    -1.57921123
O       2.43842172     3.76219512    11.53570698     1.25307901     1.04699628     1.57921123
O       6.29041168     0.65290297     5.94783754     1.25238250    -1.04785322    -1.58089119
O       1.41372297     3.76221291     5.70783358    -1.25238250     1.04785322     1.58089119
O       0.27992452     2.68552357     3.14848755    -2.03177980     0.69946450     0.47638034
O       7.42421025     1.72959231     8.50718364     2.03177980    -0.69946450    -0.47638034
O       4.13198777     1.72955103     2.67938507    -2.03277662    -0.69969462    -0.47740287
O       3.57214700     2.68556485     8.97628587     2.03277662     0.69969462     0.47740287
O       0.27991109     0.47796575     2.67934786    -2.03177980     0.69946450    -0.47638034
O       7.42422369     3.93715013     8.97632308     2.03177980    -0.69946450     0.47638034
O       3.57213357     0.47800703     8.50722078     2.03277662     0.69969462    -0.47740287
O       4.13200120     3.93710885     3.14845034    -2.03277662    -0.69969462     0.47740287
