# total energy = -19961.67407749 eV

CRYSTAL
PRIMVEC
        7.60600008     0.00000000     0.00000000
        0.00000000     7.60600008     0.00000000
       -1.89786986    -1.89786986     4.85670466
PRIMCOORD
24 1
Ti      3.83870400     6.71331299     1.13419100    -0.59894770     0.63766185     0.25729142
Ti      3.77991902     2.92041002     1.23460698     1.07523883    -0.77662334    -0.92481844
Ti     -0.07511698     6.62345202     1.22080202     0.54449480     0.07539969     0.06804941
Ti      0.01208800     2.77457501     1.23987198    -0.91178988     0.18764201     0.63286262
Ti      5.65086123     2.78074623     3.70255881     1.01852670    -0.21791547    -0.85344356
Ti      5.67433923    -0.97820976     3.66444784    -0.09712320     0.30300462    -0.04215917
Ti      1.93397124     2.89788824     3.61279379    -1.03168021    -0.44457167     0.49371858
Ti      1.90659325    -0.88032276     3.54947281     0.23448932     0.18739107     0.59475886
O       3.92383798     4.83972701     0.76387800    -0.30425675    -1.24667028     0.36816025
O       3.87985499     1.03976302     0.69746001    -0.38977938    -0.67824930     0.14042702
O      -0.08625700     4.66418400     0.82995303    -0.02936895     1.33261175    -0.18873370
O      -0.08662002     0.94973399     0.93011199     0.30585572    -1.43439739    -1.18006763
O       5.62088424     4.71322021     4.08395183    -0.09325575     0.08139370     0.34744153
O       5.78940724     0.87202024     4.09704881    -0.33239080     0.22436200    -0.00981648
O       2.07512122     4.76652624     4.05155481    -0.33949939     0.38515602    -0.93291536
O       1.94505925     0.97154424     4.09342680    -0.31865930     0.29600402    -0.45127659
O       3.76935024     2.64230520     3.16565383     0.81136847     0.54430943     0.46417660
O       3.81181624    -0.93040076     3.09377484    -0.42375010    -0.00452797     1.03668203
O      -0.02483879     2.76033623     3.22983081     0.56165924     0.48011796     0.78676223
O      -0.02140379    -0.99279780     3.28166181     0.32237275    -0.34250989    -0.70317615
O       5.66219800     6.83333198     1.69065802     1.27314365    -0.66113294    -0.22922627
O       5.75255100     2.78563000     1.69265101    -1.54921596     0.48896358     0.09203730
O       1.89684099     6.67723898     1.50993098    -0.58401936     0.04664574     0.60198058
O       1.87961801     2.80463202     1.66079502     0.85658699     0.53593483    -0.36871433
