# total energy = -4987.20534418 eV

CRYSTAL
PRIMVEC
        4.58089214     0.00000000     0.00000000
       -0.00000853     3.74800245     0.00000000
       -2.29047663    -1.87404405     5.36844515
PRIMCOORD
6 1
Ti     -0.00019882     2.81114152     1.34211143    -0.00110737     0.00032756     2.73571828
Ti      2.29060579    -0.93718336     4.02633389     0.00110737    -0.00032756    -2.73571828
O       0.00004725     0.93699272     0.87447591    -0.00017124     0.00010413    -0.61568122
O       2.29035960     0.93696532     4.49396947     0.00017124    -0.00010413     0.61568122
O      -0.00002216    -0.93698420     3.55869837    -0.00254488    -0.00037384    -1.81251887
O       2.29042890     2.81094224     1.80974695     0.00254488     0.00037384     1.81251887
