# total energy = -4988.20044548 eV

CRYSTAL
PRIMVEC
        3.21899175     0.00000000     0.00000000
        0.00000000     5.04367748     0.00000000
        0.00000000    -0.00006545     5.04367748
PRIMCOORD
6 1
Ti      1.60949582     2.52180596     2.52183868     0.00000000     0.00000000     0.00000000
Ti      0.00000000     0.00000000     0.00000000     0.00000000     0.00000000     0.00000000
O       1.60949582     0.98292568     0.98293844     0.00000000    -0.64862195    -0.64862195
O       1.60949582     4.06068623     4.06073892     0.00000000     0.64862195     0.64862195
O       0.00000000     1.53885374     3.50477815     0.00000000     0.64858621    -0.64858621
O       0.00000000     3.50475818     1.53889922     0.00000000    -0.64858621     0.64858621
