# total energy = -19516.46400405 eV

CRYSTAL
PRIMVEC
        5.93400000     0.00000000     0.00000000
        0.00000000     9.29699974     0.00000000
        0.00000000     0.00000000     4.64899994
PRIMCOORD
23 1
Ti      4.45625697     6.97618200     2.18096599    -1.53159232     1.24466790    -1.06445330
Ti      4.50520502     2.21506702     2.40790201     1.41641894     0.73682599    -0.02441135
Ti      1.36149199     6.99972398     2.42138100     1.30728303     1.26849175    -1.43852118
Ti      1.54917100     2.39778203     2.36828198    -1.76644186     0.24033550    -1.32395278
Ti      2.83757002     4.49091501     0.11842500     2.44477034    -0.51972813     0.73860159
Ti      2.90619902     0.23773299     0.00501099     1.35643457    -1.89677550     1.35998938
Ti      0.01221299     4.66328699     0.02603801    -2.56872584    -1.01016907     0.22479266
Ti      0.01750000     9.23705201     4.52647297    -1.48001315     0.28591243    -0.09605028
O       4.40662099     5.57189602     0.90232399    -0.60912439    -0.47327548    -0.83576156
O       4.53349801     0.97063400     0.86159402    -0.22930495    -1.09281721    -0.11567577
O       1.46455699     5.55548999     0.86749101     0.77175161     0.22043593    -0.07889433
O       1.56859498     1.10265198     0.84132600    -0.45922439    -1.05372151     0.27907870
O       4.61133099     8.50098698     3.42425799    -0.11376313     0.28643617     2.16157917
O       4.50664999     3.60589300     3.94282698    -0.84222429     0.53498480    -1.43767169
O       1.59046900     8.36867097     3.74023301    -0.51936535    -0.12136151    -0.05634395
O       1.35170798     3.54965903     3.88154201     1.62274285     1.70460706    -0.08645543
O       2.89486198     1.47328799     3.28815201     1.04636327    -0.31001474    -0.54984784
O       5.88003101     6.01885500     2.99600500     0.37908385    -1.69620109     2.58803741
O       0.09754700     1.47634902     3.25347302     0.40629873    -1.13792826    -0.02299827
O       2.93855000     7.82569701     1.31337401     0.00077519    -0.25610614     0.96173923
O       3.19444398     3.16006598     1.46310397    -1.89925096     1.23353656    -0.16334250
O       5.90327301     7.81236000     1.40719301     1.09830729     1.38110894    -1.84802428
O       0.01787201     3.22979599     1.43137101     0.16880147     0.43075507     0.82858587
