# total energy = -19961.44192891 eV

CRYSTAL
PRIMVEC
        7.60600008     0.00000000     0.00000000
        0.00000000     7.60600008     0.00000000
       -1.89786986    -1.89786986     4.85670466
PRIMCOORD
24 1
Ti      3.81507798     6.64652002     1.20219699     1.08671803    -0.31460956    -1.71111967
Ti      3.82497302     2.75499101     1.21456000    -0.92821589     0.31778873    -0.58144028
Ti      0.02337699     6.68462899     1.22722798    -1.14799722     0.40442799     0.38593635
Ti     -0.07422298     2.86414699     1.27739298     0.57700667    -0.39367718    -0.39321695
Ti      5.64537223     2.93545125     3.64609380     0.95600413    -1.02449423     0.44522730
Ti      5.63195621    -0.90324376     3.65408681     1.55876735     1.05741079    -0.09628425
Ti      1.99662820     2.80891920     3.64354581    -2.02730454    -0.08093579     0.43906745
Ti      1.97245623    -0.95770377     3.53968583    -1.19791880    -0.18486059     1.42719444
O       3.83486202     4.63846201     0.82416102    -0.23250777     1.15107406    -0.07142090
O       4.01731101     0.89996201     0.66446501    -0.81908589    -0.97761349     0.56995259
O      -0.17445402     4.78003699     0.76824202     0.45810210     0.35586035     0.51267096
O      -0.16114601     1.01136499     0.76162598     0.37730927    -0.68545893     0.56883133
O       5.68857723     4.85102521     4.08775582     0.06612854    -1.26867790    -0.20975762
O       5.61152224     0.98214223     4.09076081     0.04646731     0.31631703     0.00290303
O       1.94225122     4.67118321     3.99920881    -0.21619977     0.69603902     0.15425211
O       2.06639223     0.86010623     4.16195182    -0.40245827     0.56230715    -1.52576286
O       3.72203624     2.87657821     3.23374481     2.00541596    -0.04477604    -0.02677779
O       3.85620622    -0.91824376     3.11266382    -1.64448436    -0.28874785     0.57627648
O      -0.08840477     2.76941823     3.25859080     0.09244919     0.49832420    -0.15364995
O       0.04197222    -0.88016877     3.24613984     0.14439192    -0.19845170    -0.62904916
O       5.67073199     6.70221498     1.66762098     1.06924687    -0.29625727    -0.42415427
O       5.63484901     2.70709798     1.65589298     0.57314256     0.68509537     0.67265714
O       1.91075200     6.78159802     1.53864699    -0.03872906    -0.29856895     0.20752127
O       1.87210899     2.71849403     1.66311202    -0.35624807     0.01248425    -0.13985598
