# total energy = -19075.84768516 eV

CRYSTAL
PRIMVEC
        7.60600008     0.00000000     0.00000000
        0.00000000     7.60600008     0.00000000
       -1.89786986    -1.89786986     4.85670466
PRIMCOORD
22 1
Ti      3.75626702     6.45465501     1.03547700     0.33661718     1.35223339     2.16871706
Ti      3.78429998     2.85312598     1.20427301    -0.20158022    -1.40998784     0.26601800
Ti      0.04214600     6.76138901     1.07796703    -0.33498504    -1.15910516     2.74028585
Ti     -0.04848899     2.96827500     1.23494402     0.05684943     0.10236877    -0.29928192
Ti      5.76197321     2.87455321     3.64149282    -0.47790963    -0.34975269    -0.29987147
Ti      5.87584120    -0.93700177     3.74342183    -0.68126983     1.29108970    -1.63214306
Ti      1.96017223     2.79070624     3.58185279    -0.25590893    -0.56357574    -0.69787608
Ti      1.90907921    -1.00328879     3.76431279    -0.62589339     0.55279536     0.27256738
O       3.47757000     4.59680100     0.68115902     0.51747584     1.81181799     0.25154269
O       3.66824802     0.84849402     0.99280600     0.50339056     0.13996628    -1.02453434
O       0.08270300     4.82405898     0.74338301    -0.24445338    -0.64907498    -0.18996654
O      -0.12597699     0.99806100     0.85324201     0.19190053     0.57065064    -0.17212514
O       5.85037222     4.83538522     4.13828881     0.36015049    -0.06462496    -1.47844040
O       5.71034620     1.05306521     3.81905380     0.00317814    -1.44966152     0.97883579
O       1.82259022     4.68488123     4.03695782    -0.06222843     0.51956538    -0.05527154
O       1.80864624     0.87727121     4.01416780     0.54002211    -0.26174843     0.20562071
O       3.81196822     3.13367522     3.32674882    -0.08272785    -0.90006410    -0.82648553
O       0.00075122     2.87848923     3.13644981    -0.76233751     0.25946580     0.43636882
O       5.62338899     6.27646098     1.87729402    -0.04819817     1.24253594    -0.41021683
O       5.66132401     2.94079901     1.51770401    -0.44874740     0.20373455     0.39992856
O       1.84952598     6.65434798     1.89985402     0.09046378    -0.30273697    -0.77793589
O       1.79273399     2.97109700     1.63093101     1.62619173    -0.93589193     0.14426388
