# total energy = -19519.38769264 eV

CRYSTAL
PRIMVEC
        7.60600008     0.00000000     0.00000000
        0.00000000     7.60600008     0.00000000
       -1.89786986    -1.89786986     4.85670466
PRIMCOORD
23 1
Ti      3.77420798     6.67860902     1.25378199     0.32223545    -0.24539723     0.32395706
Ti      3.75488598     2.87063301     1.18280900     0.28834187     0.18135283     0.31402412
Ti     -0.00578200     6.61049798     1.20253699    -0.13390362    -0.13823721     0.26348469
Ti     -0.01838102     2.80212202     1.10203898     0.01523559     0.20196203    -0.41026466
Ti      5.54358721     2.88012021     3.65278779     1.84998372    -1.07771814     0.35030085
Ti      5.76766023    -1.01838876     3.65391679    -0.90810035     0.83833061    -0.92197248
Ti      2.09466321     2.91500225     3.69499682    -0.94386132    -0.20041988     0.34808636
Ti      1.85813622    -0.91884179     3.63960683     1.01746715    -0.27092830     0.12756533
O       3.90302100     4.75129001     0.80313898     0.00077570    -0.30815943     0.25431434
O       3.66321200     0.99812699     0.80245899    -0.13613585    -0.39116187     0.02524079
O       7.30297700     4.73230398     0.76833700     0.63138398    -0.02860405    -0.06242538
O       0.07233398     0.85425898     0.74042899     0.27603682     0.30175275     0.29421042
O       5.79790323     4.71099523     3.95499779     0.52451758    -0.32160116     0.22246967
O       5.78018823     0.90242925     4.05441279    -0.08419209     0.94865257     0.10035996
O       1.88557025     4.76306225     4.11984783    -0.38353829     0.24095899    -0.25972908
O       1.97775923     0.98093121     4.01839582    -0.30503991     0.35309898     0.16592749
O       3.84727821     2.92789121     3.18978579    -1.17803414     0.01759175    -0.48868976
O       3.79041520    -0.98171180     3.29940280     0.02389250     0.14804058    -0.49619533
O       0.04136520    -0.70079377     3.16507480    -0.25658334    -0.90931699    -0.09489354
O       5.68242898     6.67408598     1.66773899     0.18163668     0.14960201    -0.24387514
O       5.82017498     2.60754000     1.68512601    -0.20270045     0.43498171     0.14011052
O       1.89870898     6.38403700     1.56710598    -0.35361963     0.54577418     0.61718660
O       1.79101802     3.03988501     1.75072700    -0.24579858    -0.47055499    -0.56919283
