# total energy = -19890.78259068 eV

CRYSTAL
PRIMVEC
        8.65644606     0.00000000     0.00000000
        0.00002691     3.07102545     0.00000000
        0.00000000     0.00000000    13.77167557
PRIMCOORD
24 1
Ti      3.13756109     1.81988674     5.10919353     0.01287198     0.22407147     1.95111707
Ti      5.51891153     1.25113842     8.66248245    -0.01287198    -0.22407147    -1.95111707
Ti      7.46563647     1.25113941     1.77658944     0.00008587    -0.22411698    -1.95172282
Ti      1.19083621     1.81988586    11.99508666    -0.00008587     0.22411698     1.95172282
Ti      3.13754799     0.28437407     1.77664467     0.01246291     0.22426456    -1.95156701
Ti      5.51892469     2.78665121    11.99503143    -0.01246291    -0.22426456     1.95156701
Ti      1.19082305     0.28437302     8.66242722    -0.00000848     0.22438000    -1.95103608
Ti      7.46564963     2.78665226     5.10924876     0.00000848    -0.22438000     1.95103608
O       2.73982918     1.08136017     7.02758079     2.50329973     0.27754323    -1.22483081
O       5.91664351     1.98966504     6.74409519    -2.50329973    -0.27754323     1.22483081
O       1.58846315     1.08137264     0.14178714    -2.50360672     0.27740851    -1.22421066
O       7.06800959     1.98965258    13.62988843     2.50360672    -0.27740851     1.22421066
O       5.91663034     0.45415226     0.14174242    -2.50490924    -0.27738460    -1.22452484
O       2.73984234     2.61687290    13.62993315     2.50490924     0.27738460     1.22452484
O       7.06799642     0.45413985     7.02762546     2.50283513    -0.27734372    -1.22532420
O       1.58847614     2.61688537     6.74405052    -2.50283513     0.27734372     1.22532420
O       0.31452486     1.86797176     3.72007321    -1.04377134     0.43014443     1.84550794
O       8.34194782     1.20305339    10.05160271     1.04377134    -0.43014443    -1.84550794
O       4.64275934     1.20302493     3.16580853    -1.04336048    -0.43021565    -1.84477312
O       4.01371334     1.86800029    10.60586721     1.04336048     0.43021565     1.84477312
O       0.31451170     0.33245904     3.16576457    -1.04352991     0.43025730    -1.84408252
O       8.34196098     2.73856618    10.60591117     1.04352991    -0.43025730     1.84408252
O       4.01370024     0.33248750    10.05164661     1.04354431     0.43010175    -1.84571568
O       4.64277245     2.73853766     3.72002925    -1.04354431    -0.43010175     1.84571568
