# total energy = -19518.25264408 eV

CRYSTAL
PRIMVEC
        5.93400000     0.00000000     0.00000000
        0.00000000     9.29699974     0.00000000
        0.00000000     0.00000000     4.64899994
PRIMCOORD
23 1
Ti      4.50729501     7.10176200     2.18955602     0.35949743     0.18538741     0.22483637
Ti      4.50082402     2.31250098     2.29012700    -0.01429045    -0.64027100     0.34679567
Ti      1.36265899     7.05113699     2.22353502    -0.26732952    -0.31232821     0.14106594
Ti      1.50669299     2.31762501     2.43808099    -0.18807087    -0.91589079    -0.35300051
Ti      2.96094299     4.49850702     0.17267398     0.54661031     0.19290814     0.65666693
Ti      2.97022502     0.02496002     4.61492500     0.09264434     0.41247863     0.34226487
Ti      5.92620998     4.58929901     0.08920198    -0.43954773     0.53989587    -0.24954211
Ti      0.03981403     0.00276701     4.54337998    -0.17137257     0.69504966     0.27594401
O       4.47489200     5.57221898     1.02810498    -0.48831258    -0.53701135    -1.09375206
O       4.43672398     0.98176599     0.93255801    -0.36764501    -1.05326488    -0.86981918
O       1.47253502     5.62850000     0.94781001     0.43693626    -1.23168948    -0.93443077
O       1.48783301     0.92915900     0.89639102     0.07866550    -0.35907577    -0.36319520
O       4.40887301     8.46698502     3.63326501    -0.01016949    -0.57658732     0.36171064
O       4.43705699     3.65193698     3.84025401    -0.02073827     1.00234674     0.00829978
O       1.40266902     8.32301700     3.61939400     0.84772131     1.01043877     1.34102054
O       1.52363402     3.66220503     3.87822698    -0.16002192     0.51339884    -0.68361596
O       2.97740199     1.39343297     3.23530599    -0.14684193    -0.05714922     0.14530595
O       5.87493498     6.16774299     3.15418301    -0.12022586    -1.02301584     0.96096148
O       5.91747099     1.35626399     3.17346798     0.43377612     0.25746137     0.41642759
O       2.90181500     7.78043802     1.41911702     0.67910650     0.49973779    -0.39151308
O       3.01315701     3.29671198     1.51018900    -0.74908733    -0.15443568     0.40432386
O       0.01726002     7.90207100     1.31907399    -0.65369242     0.46400305    -0.37410670
O       0.03016501     3.17621801     1.45177101     0.32238843     1.08761329    -0.31264729
