# total energy = -4988.19589873 eV

CRYSTAL
PRIMVEC
        4.08187242     0.00000000     0.00000000
        1.00475952     3.95627865     0.00000000
       -2.54335314    -1.97816824     5.25120118
PRIMCOORD
6 1
Ti      0.75343709     2.96736049     1.31280021     0.00043940    -0.00043940    -0.00000000
Ti      1.78984190    -0.98924993     3.93840063    -0.00043940     0.00043940     0.00000000
O       0.25123268     0.98906403     0.85537770    -0.00066540    -0.00114723    -1.15962041
O       2.29204613     0.98904644     4.39582314     0.00066540     0.00114723     1.15962041
O      -0.25120351    -0.98904134     3.48097812    -0.00114723    -0.00066540    -1.15962041
O       2.79448232     2.96715176     1.77022272     0.00114723     0.00066540     1.15962041
