# total energy = -19927.64348077 eV

CRYSTAL
PRIMVEC
        6.18986802     0.00000000     0.00000000
        1.30456522     6.45743153     0.00000000
        0.00000000     0.00000000    11.13486461
PRIMCOORD
24 1
Ti      3.01661349     3.82666795     4.13095549    -0.11653992    -1.76331899     0.77219770
Ti      4.47781946     2.63076374     7.00390956     0.11653992     1.76331899    -0.77219770
Ti      5.86984263     2.63076606     1.43643254     0.02117947    -0.22686600    -0.26137639
Ti      1.62459034     3.82666588     9.69843263    -0.02117947     0.22686600     0.26137639
Ti      2.36433102     0.59795242     1.43647719    -0.11653992    -1.76331899    -0.77219770
Ti      5.13010194     5.85947946     9.69838799     0.11653992     1.76331899     0.77219770
Ti      0.97230777     0.59794992     7.00386491    -0.02117947     0.22686600    -0.26137639
Ti      6.52212519     5.85948196     4.13100014     0.02117947    -0.22686600     0.26137639
O       2.41849179     2.27377145     5.68203635     1.73865671     1.90762170    -0.52110084
O       5.07594115     4.18366024     5.45282870    -1.73865671    -1.90762170     0.52110084
O       1.59520270     2.27379745     0.11463969    -0.87699873     0.35891971     0.76009140
O       5.89923032     4.18363430    11.02022505     0.87699873    -0.35891971    -0.76009140
O       4.42365867     0.95494453     0.11460354    -1.73865671    -1.90762170    -0.52110084
O       3.07077427     5.50248716    11.02026119     1.73865671     1.90762170     0.52110084
O       5.24694784     0.95491858     5.68207250     0.87699873    -0.35891971     0.76009140
O       2.24748505     5.50251318     5.45279255    -0.87699873     0.35891971    -0.76009140
O       1.01840268     3.92777584     3.00780483     0.46008520     1.19172681     1.38463238
O       6.47603027     2.52965585     8.12706022    -0.46008520    -1.19172681    -1.38463238
O       3.83088091     2.52959554     2.55966311     0.66869584     1.38984555     0.55867033
O       3.66355204     3.92783615     8.57520175    -0.66869584    -1.38984555    -0.55867033
O       0.36612020     0.69906012     2.55962754     0.46008520     1.19172681    -1.38463238
O       7.12831276     5.75837163     8.57523732    -0.46008520    -1.19172681     1.38463238
O       3.01126955     0.69912037     8.12709573    -0.66869584    -1.38984555     0.55867033
O       4.48316339     5.75831132     3.00776925     0.66869584     1.38984555    -0.55867033
