# total energy = -19902.41825808 eV

CRYSTAL
PRIMVEC
        7.54236518     0.00000000     0.00000000
        0.00002375     3.04485977     0.00000000
        0.00000000     0.00000000    11.67370079
PRIMCOORD
24 1
Ti      2.73375879     1.80438104     4.33085975    -0.53387846     0.38145055     0.86756612
Ti      4.80863035     1.24047862     7.34284115     0.53387846    -0.38145055    -0.86756612
Ti      6.50481265     1.24047966     1.50594406    -0.53336655    -0.38162307    -0.86750338
Ti      1.03757649     1.80438016    10.16775694     0.53336655     0.38162307     0.86750338
Ti      2.73374702     0.28195121     1.50599086    -0.53429189     0.37412830    -0.86764557
Ti      4.80864212     2.76290856    10.16771014     0.53429189    -0.37412830     0.86764557
Ti      1.03756472     0.28195012     7.34279434     0.53340589     0.37423680    -0.86626128
Ti      6.50482442     2.76290965     4.33090655    -0.53340589    -0.37423680     0.86626128
O       2.38721466     1.07214686     5.95700014     5.47595271    -0.47458160     1.11812561
O       5.15517453     1.97271280     5.71670075    -5.47595271     0.47458160    -1.11812561
O       1.38402892     1.07215913     0.12018730    -5.47575294    -0.47480425     1.12019201
O       6.15836033     1.97270053    11.55351328     5.47575294     0.47480425    -1.12019201
O       5.15516276     0.45028291     0.12014943    -5.47824022     0.47488473     1.11720002
O       2.38722638     2.59457675    11.55355115     5.47824022    -0.47488473    -1.11720002
O       6.15834856     0.45027065     5.95703806     5.47735782     0.47488267     1.11778006
O       1.38404052     2.59458906     5.71666283    -5.47735782    -0.47488267    -1.11778006
O       0.27404604     1.85205630     3.15335780     0.47855909    -0.24458502     1.48394694
O       7.26834310     1.19280335     8.52034309    -0.47855909     0.24458502    -1.48394694
O       4.04523856     1.19277505     2.68352971     0.47754454     0.24466010    -1.48352296
O       3.49715063     1.85208466     8.99017097    -0.47754454    -0.24466010     1.48352296
O       0.27403427     0.32962642     2.68349243     0.47902035    -0.24406334    -1.48093437
O       7.26835487     2.71523324     8.99020825    -0.47902035     0.24406334     1.48093437
O       3.49713887     0.32965472     8.52038027    -0.47748694    -0.24441970    -1.48382712
O       4.04525032     2.71520494     3.15332057     0.47748694     0.24441970     1.48382712
