# total energy = -19516.80420092 eV

CRYSTAL
PRIMVEC
        5.17600016     0.00000000     0.00000000
        0.00000000     5.50899976     0.00000000
        0.00000000     0.00000000     9.26300011
PRIMCOORD
23 1
Ti      1.85439102     3.21329899     3.34932199     1.02119705    -1.38456296     2.89557591
Ti      3.28509199     2.26115798     5.97244499     0.24758601     0.53223552    -2.85990030
Ti      4.43899601     2.04515201     1.35748401    -0.46349731     0.52509762     1.27273048
Ti      0.89597598     3.30226401     7.72591699    -0.01404671     0.38578543    -0.86477878
Ti      2.08807199     0.21991199     1.30305998    -0.60900406     0.22156258     0.98015323
Ti      3.26642198     5.19900000     8.01945601     0.07802324     0.66591957    -1.77538776
Ti      0.70934797     0.55294302     5.88077498    -0.46979446     0.15736237    -2.72765299
Ti      4.49613498     4.95312801     3.33713001     0.37865447    -0.14374915     3.50449847
O       1.56398299     1.92299700     4.69346898    -0.25033041    -0.14696457     1.45882545
O       3.48468701     3.48118698     4.44036298     0.61617641    -0.02273936     0.61298156
O       0.12911502     2.83548501     9.25824799    -0.51233132    -0.49673037     1.85608675
O       3.41558700     0.95112102     0.17122900     0.25969874    -0.36822325    -0.93143029
O       1.85557902     4.53987402     9.05782999     0.64539393     0.25500236     0.37955025
O       4.14969602     0.61873902     5.05357902    -0.32986623     0.87465105    -0.68946008
O       0.94418202     4.83426897     4.44356598     0.41385572    -0.34153904     0.11734031
O       0.19449100     3.42700003     2.60024900    -1.02809892    -0.66917870    -1.46859024
O       4.78624900     2.02333102     7.07708901     0.32565630     0.14349229    -1.47605313
O       2.67016300     1.80390000     2.29053103     0.11829907     0.72711210    -0.31070765
O       2.43606900     3.85275397     6.77280701     1.04596758    -0.30331547     0.28745253
O       0.21947399     0.61521602     2.04768100     0.87475107    -0.11292495    -0.68369669
O       0.02307102     4.85270202     7.18301400    -1.78316072    -0.75922853     1.29373742
O       2.20379300     1.14430601     7.10587001    -0.28363958    -0.57497164     0.52093526
O       2.93658400     4.45690500     2.33091799    -0.28148936     0.83590760    -1.39220994
