# total energy = -19077.20875157 eV

CRYSTAL
PRIMVEC
        7.60600008     0.00000000     0.00000000
        0.00000000     7.60600008     0.00000000
       -1.89786986    -1.89786986     4.85670466
PRIMCOORD
22 1
Ti      3.80732099     6.60869697     1.18460000    -0.53577490     0.31956099    -0.44530932
Ti      3.78861600     2.84907698     1.21848200     0.01872432    -0.15340570    -0.38760397
Ti     -0.00587900     6.67049800     1.20676401     0.42262113     0.34565050    -0.68686866
Ti     -0.02080402     2.88442200     1.20712797     0.09549106    -0.53345500     0.31255267
Ti      5.70231424     2.86168325     3.65372782     0.24237079     0.08549178    -0.45901330
Ti      5.72629920    -0.94508877     3.64134179    -0.12879200    -0.32664361     0.05158483
Ti      1.91263724     2.85332823     3.63708482    -0.20590302    -0.18841899    -0.21089044
Ti      1.89594424    -0.97102475     3.69137984    -0.03429467     0.23773200    -1.21213881
O       3.73796500     4.76663398     0.75173999     0.31172118    -0.47219253     0.37214958
O       3.76978099     0.93150902     0.71649002     0.18736716     0.00129815     1.38520548
O       0.01294902     4.76720301     0.80043398    -0.08721159    -0.35738604    -0.15727264
O      -0.01898699     0.96386599     0.82576501     0.00529725    -0.57230849    -0.09989639
O       5.71441325     4.72721324     3.99150182     0.04655318     0.80645457     0.22316695
O       5.71764424     0.90977021     3.98991180    -0.07505104     0.32632531     0.42973408
O       1.88268523     4.73298524     4.05707683     0.10166994     0.46225932    -0.77746229
O       1.86435321     0.93731923     4.10776481     0.28259391     0.00488998    -0.91871644
O       3.82522522     2.91791622     3.22820983    -0.21545390    -0.38327398     0.10603131
O       0.02202822     2.82868524     3.24491479    -0.27371023     0.11324505    -0.70191811
O       5.64516601     6.56673401     1.67863797     0.88303054     0.32875217     0.94636557
O       5.69407501     2.84351300     1.58981197     0.49862759     0.09814907     0.29634649
O       1.93094699     6.65283702     1.62174602    -0.77923764     0.03231466     1.53446502
O       1.93856100     2.87956399     1.59500802    -0.76063878    -0.17503948     0.39948839
