# total energy = -19915.98618875 eV

CRYSTAL
PRIMVEC
        4.80116289     0.00000000     0.00000000
        2.18867129     4.61743260     0.00000000
        0.00000000     0.00000000     8.83047318
PRIMCOORD
24 1
Ti      3.03719515     2.73628626     3.27604255     5.95119226    -4.81328148     1.32284875
Ti      3.95263886     1.88114628     5.55443068    -5.95119226     4.81328148    -1.32284875
Ti      5.03236020     1.88114784     1.13915880   -12.40738433     3.66398252     3.04025965
Ti      1.95747389     2.73628487     7.69131458    12.40738433    -3.66398252    -3.04025965
Ti      1.94285962     0.42757003     1.13919419     5.95109635    -4.81252069    -1.32234481
Ti      5.04697442     4.18986265     7.69127919    -5.95109635     4.81252069     1.32234481
Ti      0.86313825     0.42756833     5.55439529    12.40711950    -3.66357988     3.03975752
Ti      6.12669584     4.18986434     3.27607799   -12.40711950     3.66357988    -3.03975752
O       2.29026668     1.62587649     4.50612288    -2.47785094    -0.60855900    -1.44035258
O       4.69956733     2.99155605     4.32435040     2.47785094     0.60855900     1.44035258
O       1.65168832     1.62589515     0.09091468     2.64164261     0.34502700    -3.17268051
O       5.33814575     2.99153748     8.73955836    -2.64164261    -0.34502700     3.17268051
O       3.60523178     0.68283972     0.09088600     2.47667775     0.60759278    -1.44071228
O       3.38460224     3.93459286     8.73958699    -2.47667775    -0.60759278     1.44071228
O       4.24381019     0.68282111     4.50615152    -2.64306623    -0.34422456    -3.17351227
O       2.74602378     3.93461149     4.32432172     2.64306623     0.34422456     3.17351227
O       1.50571126     2.80858429     2.38533111    -0.03952456    -5.51202916    -4.87068395
O       5.48412270     1.80884827     6.44514216     0.03952456     5.51202916     4.87068395
O       3.43240518     1.80880530     2.02993359     2.91438817    -4.33394411    -5.77148982
O       3.55742883     2.80862725     6.80053950    -2.91438817     4.33394411     5.77148982
O       0.41137570     0.49986792     2.02990538    -0.03993413    -5.51258272     4.86928219
O       6.57845826     4.11756464     6.80056771     0.03993413     5.51258272    -4.86928219
O       2.46309327     0.49991088     6.44517028    -2.91567295     4.33505123    -5.77053183
O       4.52674074     4.11752167     2.38530291     2.91567295    -4.33505123     5.77053183
