# total energy = -19918.33953559 eV

CRYSTAL
PRIMVEC
        6.29112707     0.00000000     0.00000000
        0.00002214     3.60535634     0.00000000
        0.00000000     0.00000000     9.51794943
PRIMCOORD
24 1
Ti      2.28024418     2.13653094     3.53109148    -0.84472469     2.40301304    -3.08156701
Ti      4.01090518     1.46882570     5.98685835     0.84472469    -2.40301304     3.08156701
Ti      5.42569990     1.46882697     1.22784543    -0.84274519    -2.40323081     3.08345806
Ti      0.86544946     2.13652977     8.29010450     0.84274519     2.40323081    -3.08345806
Ti      2.28023321     0.33385282     1.22788358    -0.84500648     2.40322361     3.08105742
Ti      4.01091615     3.27150391     8.29006635     0.84500648    -2.40322361    -3.08105742
Ti      0.86543849     0.33385140     5.98682020     0.84265649     2.40312540     3.08445796
Ti      5.42571087     3.27150529     3.53112963    -0.84265649    -2.40312540    -3.08445796
O       1.99118930     1.26950731     4.85693690     4.12401398    -2.57722180     4.50938777
O       4.29996006     2.33584927     4.66101293    -4.12401398     2.57722180    -4.50938777
O       1.15442672     1.26952184     0.09799261    -4.12333958    -2.57827698     4.50996756
O       5.13672269     2.33583479     9.41995692     4.12333958     2.57827698    -4.50996756
O       4.29994909     0.53317110     0.09796174    -4.12442972     2.57698706     4.50886070
O       1.99120027     3.07218553     9.41998780     4.12442972    -2.57698706    -4.50886070
O       5.13671172     0.53315657     4.85696777     4.12391550     2.57815665     4.51009791
O       1.15443754     3.07220006     4.66098201    -4.12391550    -2.57815665    -4.51009791
O       0.22858465     2.19298213     2.57103568     2.99987352    -0.67629166     1.89475204
O       6.06256470     1.41237451     6.94691415    -2.99987352     0.67629166    -1.89475204
O       3.37415595     1.41234080     2.18796946     3.00088397     0.67685447    -1.89565141
O       2.91699341     2.19301584     7.32998017    -3.00088397    -0.67685447     1.89565141
O       0.22857368     0.39030391     2.18793909     2.99976116    -0.67680459    -1.89458672
O       6.06257567     3.21505273     7.33001055    -2.99976116     0.67680459     1.89458672
O       2.91698244     0.39033762     6.94694448    -3.00081197    -0.67658836    -1.89528606
O       3.37416692     3.21501901     2.57100530     3.00081197     0.67658836     1.89528606
