# total energy = -4988.66200042 eV

CRYSTAL
PRIMVEC
        2.84126361     0.00000000     0.00000000
        0.66404034     4.40203106     0.00000000
       -0.00000417    -0.00005779     4.46447845
PRIMCOORD
6 1
Ti      1.75264963     2.20098655     2.23223918     0.00000000     0.00000000     0.00000000
Ti      0.00000000     0.00000000     0.00000000     0.00000000     0.00000000     0.00000000
O       1.55004255     0.85787970     0.87006106    -1.83565675     0.94856233     0.98900425
O       1.95525672     3.54409340     3.59441724     1.83565675    -0.94856233    -0.98900425
O       0.20260527     1.34308344     3.10230119     1.83540736    -0.94822423     0.98860882
O       0.46143049     3.05888976     1.36217711    -1.83540736     0.94822423    -0.98860882
