# total energy = -19518.14318311 eV

CRYSTAL
PRIMVEC
        5.93400000     0.00000000     0.00000000
        0.00000000     9.29699974     0.00000000
        0.00000000     0.00000000     4.64899994
PRIMCOORD
23 1
Ti      4.41655101     7.01564597     2.22867798     0.52627724     0.15704972     0.19111865
Ti      4.46445398     2.33314001     2.30847601     0.99352168     0.25308432    -0.24076333
Ti      1.40740802     6.98105800     2.30723202    -0.85105269     0.05057490     0.01497308
Ti      1.50160098     2.29181301     2.36259602    -0.80865878     0.46333070     0.07640704
Ti      2.99265399     4.53096701     0.11115903    -0.37923271    -0.05762821     0.05021495
Ti      2.95923200     0.09750001     0.01529402    -0.09281506    -0.74289482     0.05918630
Ti      0.00120002     4.64462799     0.03069302     0.37390307     0.13758312    -0.44491903
Ti      5.92891699     0.00117202     4.55129599    -0.08483461    -0.32241337    -0.23846374
O       4.38212099     5.57528202     0.91166598    -0.07266120    -0.28749058    -0.27383904
O       4.52654801     0.90014199     0.88334299    -0.35276371     0.09340178    -0.04999049
O       1.50809500     5.55532198     1.00366498     0.37176726    -0.06001137    -0.60437865
O       1.48392302     0.95265097     0.92951900     0.34308890    -0.44640255    -0.53299631
O       4.52927798     8.29994699     3.63963302    -0.54638019     1.09363533     1.21743143
O       4.47599698     3.74018601     3.74101000    -0.46923833     0.43719980     0.34522909
O       1.54945300     8.46103500     3.67173900    -0.02747559    -0.40503014     0.10481646
O       1.45013199     3.64317200     3.83221698     0.29974137     0.79509749    -0.10210549
O       3.05937498     1.52934601     3.26963901    -0.62629397    -0.97075815     0.36081821
O       5.90015600     6.04238498     3.25756202     0.53062755    -0.28276077     0.27941474
O       0.01070801     1.37835798     3.13649198    -0.17631372    -0.43276696     0.85880020
O       2.96366698     7.87763597     1.33891100    -0.19777087    -0.31169701     0.69611924
O       2.95463001     3.27512700     1.40593801     0.23125050    -0.83349668     0.66512278
O       5.88882700     7.75361302     1.46498298     0.79694020     1.62258987    -1.69514000
O       0.00062501     3.31234499     1.54398501     0.21837416     0.04980332    -0.73705636
