# total energy = -39034.21908979 eV

CRYSTAL
PRIMVEC
        5.93200024     0.00000000     0.00000000
        0.00000000     9.29399984     0.00000000
        0.00000000     0.00000000     9.29399984
PRIMCOORD
46 1
Ti      4.40802802     6.90001900     6.96447999     0.28955646     0.71407583     0.50557240
Ti      4.53102898     6.90665001     2.28823598    -0.48359100     0.76543286     0.56988394
Ti      4.43510999     2.37092702     6.92083900    -0.82644671     0.45640620    -0.57483537
Ti      4.23295402     2.57755999     2.03981298     0.64499566    -1.14836874     1.32343213
Ti      1.46962100     7.00580698     6.97141300    -0.33024033     0.00767063    -0.50758043
Ti      1.50203697     7.01237301     2.25802102     0.45384924     0.25659336     0.60566420
Ti      1.47281602     2.30449199     7.10792401     1.00049991     0.51983663    -1.07680129
Ti      1.20684502     2.11365702     2.55593802     1.29406087     0.48015035    -0.11021089
Ti      3.06607500     4.68688999     4.62267401    -1.22755078    -0.58538873    -0.37407251
Ti      2.98758701     4.79706702     9.13460800    -1.00541227    -0.45051375     0.37151992
Ti      2.94964500     9.27644301     4.67498699    -0.24086618    -0.84164862    -0.31747351
Ti      2.97143800     0.05392602     0.07210199     0.39630279    -0.65475377     0.22663871
Ti      0.05494601     4.60301502     4.64891999     1.26845884    -0.47761473    -0.96918258
Ti      5.91453401     4.71113398     9.29394999     0.96481505    -0.07577687    -0.32430108
Ti      5.89715498     9.20864000     4.88133500    -0.15016482    -0.30867519    -0.74788328
Ti      0.03108302     9.26850302     9.19425601    -0.75090304    -0.63112918     0.54464855
O       4.64216398     5.57920100     5.45606399    -1.47680081     0.39703067     1.09501987
O       4.53516402     5.81061201     0.69340498    -0.56397323    -1.31933174     0.83068723
O       4.35572298     0.73932999     5.75372699     0.97805289     1.02324956    -0.83629172
O       4.42457503     0.74247802     0.96259898     0.52022564     1.97758710     0.28132790
O       1.65351899     5.62244298     5.53023099    -0.24285055    -0.61331966     0.03414092
O       1.48685202     5.61564501     0.78589198     0.42917873    -0.49670440     1.27681107
O       1.50560601     0.77523499     5.86563501    -0.50486535    -0.16493993    -1.98547602
O       1.49410498     0.85097401     1.01600598    -0.55943600    -0.03168680    -0.41881512
O       4.40961302     8.38151702     8.33148902     0.69531243     0.14269679     0.36184665
O       4.48202399     8.37027602     3.79294102    -0.08652125     0.96545448     0.06708088
O       4.45099801     3.93800602     8.17284401    -0.25329438    -0.97874143     0.78892376
O       4.59967999     3.53380900     3.80593798    -0.12586943     0.66856497    -1.39831169
O       1.43649498     8.23212700     8.46820800     0.22118540     1.49965792    -0.26454090
O       1.48171101     8.02177798     3.93720902     0.44518925     2.45785906    -0.22635641
O       1.51161699     3.89795402     8.28753900     0.44361445    -1.03512317     0.28874785
O       1.57634298     3.81722300     3.66109598    -0.53676452    -0.85905422    -0.01615373
O       2.89713098     6.14498303     7.92995298     0.70635738     0.36059298    -1.06592166
O       3.11390998     5.87427298     3.12599797     0.16061790     0.62627340    -0.46943887
O       2.96853202     1.47068100     7.99024600     0.14868129     0.63261451     0.00112897
O       2.90312201     1.58807199     3.05169000     0.71453734    -0.59200675     0.67531027
O       0.10306097     6.05775202     7.95033302    -0.61325307     0.48816962    -1.48234411
O       0.02322702     6.06701299     3.21696799    -0.01838957    -0.49646478    -0.64596857
O       0.06347100     1.52391798     7.98500001    -1.09981010    -0.45643294     0.34147399
O       3.00902800     7.91923502     6.12260899     0.14340745    -0.74987640    -0.11416294
O       3.05450602     7.96111998     1.50058999    -0.85453191    -0.90616148     0.24196635
O       2.94605702     3.07616699     5.87259898     0.67481919     0.23207711     1.36953177
O       5.83398000     7.88316699     6.08329800     0.56603346    -1.09242126     1.13415876
O       0.10007800     7.88010803     1.35181101    -0.14110991    -0.17842434     0.94644554
O       5.90153201     3.21891600     6.01890099     0.53098931    -0.65173376     0.54773671
O       0.08316401     3.02928998     1.40394799    -1.59809573     1.12429884    -0.50357542
