# total energy = -19959.31380385 eV

CRYSTAL
PRIMVEC
        5.32004823     0.00000000     0.00000000
        0.84459906     5.59879294     0.00000000
        0.00000000     0.00000000     9.54875720
PRIMCOORD
24 1
Ti      2.42877021     3.31783946     3.54252085     0.55954785    -1.15124298     0.68940223
Ti      3.73587702     2.28095333     6.00623657    -0.55954785     1.15124298    -0.68940223
Ti      4.93228866     2.28095522     1.23181968    -0.87898131    -0.36997803     0.34937654
Ti      1.23235859     3.31783778     8.31693785     0.87898131     0.36997803    -0.34937654
Ti      2.00647079     0.51844309     1.23185797     0.55967589    -1.15190632    -0.69139227
Ti      4.15817645     5.08034986     8.31689955    -0.55967589     1.15190632     0.69139227
Ti      0.81005914     0.51844103     6.00619827     0.87890135     0.36969212     0.34537410
Ti      5.35458810     5.08035191     3.54255914    -0.87890135    -0.36969212    -0.34537410
O       1.98122652     1.97143010     4.87265775     0.63076537     0.87442582    -0.43546970
O       4.18342071     3.62736268     4.67609961    -0.63076537    -0.87442582     0.43546970
O       1.27362745     1.97145274     0.09830980    -0.12310241    -0.13409414     0.42823230
O       4.89101983     3.62734010     9.45044734     0.12310241     0.13409414    -0.42823230
O       3.76112128     0.82796615     0.09827883    -0.63077000    -0.87441271    -0.43576821
O       2.40352595     4.77082664     9.45047831     0.63077000     0.87441271     0.43576821
O       4.46872041     0.82794356     4.87268878     0.12334615     0.13368687     0.42929520
O       1.69592677     4.77084928     4.67606864    -0.12334615    -0.13368687    -0.42929520
O       0.70702267     3.40550324     2.57935759    -0.03075426     0.26182376     0.20611256
O       5.45762455     2.19328949     6.96939983     0.03075426    -0.26182376    -0.20611256
O       3.18418244     2.19323742     2.19505150     0.61648520     0.24396796    -0.20612259
O       2.98046478     3.40555531     7.35370576    -0.61648520    -0.24396796     0.20612259
O       0.28472325     0.60610670     2.19502096    -0.03027449     0.26179856    -0.20686281
O       5.87992398     4.99268602     7.35373624     0.03027449    -0.26179856     0.20686281
O       2.55816536     0.60615878     6.96943026    -0.61653071    -0.24418007    -0.20575261
O       3.60648187     4.99263395     2.57932710     0.61653071     0.24418007     0.20575261
