# total energy = -19072.62634648 eV

CRYSTAL
PRIMVEC
        5.17600016     0.00000000     0.00000000
        0.00000000     5.50899976     0.00000000
        0.00000000     0.00000000     9.26300011
PRIMCOORD
22 1
Ti      1.72683798     3.46167098     3.38179400    -0.81574089     2.13059659    -0.24251811
Ti      3.80261200     2.17888299     6.05446900    -0.43642615     1.50833360     0.55979621
Ti      4.40910702     2.45198999     1.39342202    -1.34722616     0.01466532     0.35396750
Ti      1.39109697     2.75294299     7.85071699     0.44861653    -0.65090792     1.49929591
Ti      1.71998302     0.78642000     1.40960802    -0.54049339    -0.23629090    -0.36110926
Ti      3.15842098     5.40105797     7.93400901     0.09949530     0.07470832    -0.29364452
Ti      0.60149001     5.30700503     6.32708599    -0.70011525    -0.40968641    -0.34163623
Ti      4.30053699     5.14486602     3.41690200     0.24769374     1.39218809     1.83141289
O       3.07575699     3.13373899     4.42583299     1.88435295     0.14048924     1.89507034
O       0.52699302     1.93406601     0.27181602     1.72425030     0.80304478    -2.56933905
O       0.39543400     3.05615499     6.46322599    -1.51205425     1.73842891    -2.76265291
O       3.28936102     0.85296901     0.29594100    -0.52363081    -0.40765293    -0.39226847
O       1.28530301     4.70194000     8.06907299    -0.47938493     0.49789920     0.48705171
O       3.99626700     0.64889498     5.21078499     0.90232899    -2.50314829    -3.63001000
O       0.84288702     4.89294103     4.41608602    -0.05923592    -0.43036426     1.51827066
O       0.07697000     4.06298398     2.29156901    -0.47152995    -2.28950085    -2.06492596
O       4.58770900     0.97063898     7.32302498     1.21560851    -0.35585264     1.77669902
O       2.42248100     2.34848303     2.02468899     1.27333597     0.35566957    -0.48152872
O       3.20613298     3.35704301     7.66039898     0.49080912     0.62326161     0.36420230
O       5.10605298     1.15283899     2.43553798    -0.19589756    -0.67367170     1.80439984
O       2.13535101     1.26176600     6.70927097    -0.88984114    -0.92918674     0.90330447
O       2.61580898     5.01723598     2.51262000    -0.31491423    -0.39302283     0.14616238
