# total energy = -19073.90040868 eV

CRYSTAL
PRIMVEC
        5.17600016     0.00000000     0.00000000
        0.00000000     5.50899976     0.00000000
        0.00000000     0.00000000     9.26300011
PRIMCOORD
22 1
Ti      1.99597102     3.45248102     3.24888600     0.18013978     1.54328468     0.10831110
Ti      3.48828801     2.19075698     5.91535899    -0.13282221     0.31573184    -1.08403303
Ti      4.50888201     2.33246499     1.24705302    -0.34165114    -0.44621409    -0.20784523
Ti      0.60585800     3.04922102     8.12283300     0.24851984     1.59932138    -0.91759569
Ti      1.89924202     0.64567499     1.39899902    -0.02490577    -1.49681454    -2.00926670
Ti      3.11503400     4.98003201     8.08469700    -1.08464804     0.88040750     1.71933537
Ti      0.61901001     0.09655601     5.96657298     0.55555184     1.03274542     0.11802268
Ti      4.55801199     4.95081899     3.44597902     0.41847728    -0.11039653    -0.51713825
O       3.60350498     3.37351799     4.25923100     0.46771598    -0.34893071     2.04663127
O       0.86114501     1.91624697     0.22399200     1.07631946    -0.22110287    -1.28469202
O       4.18983200     3.63167600     8.97249503    -0.27491402    -0.23075839     0.07177366
O       3.41173300     0.77168701     0.17106702     0.82790761     0.80545544    -1.04533483
O       1.63345100     4.76214598     9.25526999    -0.58209052    -0.65723669    -0.90470597
O       4.31545402     0.79767999     4.71653799    -0.46774529     0.03712803     1.11183978
O       1.20319502     5.02505701     4.22122999    -0.56894215    -1.16586562     1.44067885
O       0.47420902     3.52226098     2.16899801    -1.88436349     0.18235350     0.98448811
O       4.93591202     1.77072000     6.93584202     0.77393988    -0.51488725     0.27694159
O       2.78651299     2.21619099     2.06558598    -0.24884765    -0.79901380     0.42488550
O       1.87618598     3.81665901     6.97117598     0.75560122     0.34977249    -1.37127833
O       0.08874699     0.75452299     2.05910499    -0.17491633    -0.62952199     1.57708698
O       2.24986598     1.05774499     6.71169302    -0.03062159    -1.13981236    -0.12959393
O       2.88952898     4.80681499     2.38778798     0.51229532     1.01435482    -0.40851142
