# total energy = -19960.89103460 eV

CRYSTAL
PRIMVEC
        5.93400000     0.00000000     0.00000000
        0.00000000     9.29699974     0.00000000
        0.00000000     0.00000000     4.64899994
PRIMCOORD
24 1
Ti      4.48952301     6.98835202     2.37794899     0.08432065     0.31017054    -0.00252251
Ti      4.42773099     2.30357302     2.23139499    -0.24513858     0.26973145     1.19920950
Ti      1.49033099     6.93883600     2.33708000     0.03412318     0.27613350    -0.43883579
Ti      1.47765900     2.35286700     2.28245298     0.31565085     0.19442612     1.12457754
Ti      2.99235399     4.68028501     0.01073801    -0.76691511    -1.07748186    -0.42439287
Ti      2.94679300     0.01739501     0.09220601    -0.31872846     0.27509888    -0.70030551
Ti      5.90146402     4.61214598     0.03161702     0.91977496    -0.99524046    -0.89474963
Ti      0.02170098     0.03959299     4.60980098     0.32758772    -0.00037101    -0.34193474
O       4.51056199     5.52246198     0.89751901    -0.97529667     0.84166045     0.77852518
O       4.45136399     0.87918101     0.92714098     0.18953588    -0.18320917    -0.08112193
O       1.45114801     5.43602198     0.95564299     0.74358851     0.77218793     0.30065386
O       1.42572199     0.89354198     0.98786597    -0.03834339    -0.40398448    -1.07683420
O       4.39215398     8.47941698     3.73378101     0.60626352    -1.00713028    -0.37147826
O       4.44381702     3.75120602     3.63633000    -0.08771347     0.32964460     0.57209329
O       1.48074399     8.40609301     3.77970402    -0.06068063     0.04694322    -0.02335822
O       1.45458898     3.71876301     3.75327500     0.38314079     0.45117324    -0.49839722
O       3.02814299     5.97910998     3.27003002     0.23846142     1.31365063    -0.91341662
O       2.90520401     1.39321802     3.22827698     0.33602917     0.43828841    -0.07811503
O       0.06370400     6.15899998     3.25662998    -1.26431088    -0.26107068     0.25778610
O       0.03815098     1.52008298     3.18117200    -0.86807700    -1.23921459     0.94340366
O       2.89573702     7.97933400     1.54011599     1.20607332    -0.83540366    -0.40699215
O       2.93625099     3.15287901     1.33981901     0.58492284     0.45570609    -0.13888487
O       0.14322701     7.80289699     1.31682801    -1.40513205     0.06890430     0.72377712
O       5.86982202     3.17911599     1.28291700     0.06086292    -0.04061290     0.49131306
