# total energy = -19960.52408430 eV

CRYSTAL
PRIMVEC
        5.93400000     0.00000000     0.00000000
        0.00000000     9.29699974     0.00000000
        0.00000000     0.00000000     4.64899994
PRIMCOORD
24 1
Ti      4.47949701     6.83458200     2.30718000    -2.40751273     2.06327943     0.79444880
Ti      4.43958302     2.46608500     2.41484302     0.70436066    -1.38484090    -0.99862301
Ti      1.46586501     6.96088602     2.17467201     2.25796523     1.38785449     0.79457093
Ti      1.45698499     2.28140198     2.34999901    -0.54241632    -0.00870447     0.09611764
Ti      3.01995498     4.64709602     0.07657200    -2.04213287     0.37729153    -0.16499366
Ti      2.95821899     0.11879098     0.00855801     0.54073276    -1.80124407    -0.42913142
Ti      5.93033598     4.69665299     4.52060800     2.06256209    -0.62318679     0.59671778
Ti      5.92121497     9.29084801     0.09789901    -0.95130184    -0.44013009    -1.56042983
O       4.47040702     5.53380500     0.96472902     0.28534422    -0.65335741    -0.68509512
O       4.41177201     0.83878801     1.00491702     0.81577277     0.52020481     0.33055400
O       1.47718099     5.51721402     0.83732399    -0.28335521    -0.04906849     0.49586520
O       1.44556598     0.82414298     0.99724998    -0.07847395     0.69031060     0.44705998
O       4.43325401     8.45327800     3.77707798     0.53106567    -0.50411021    -0.50104083
O       4.40471098     3.82141001     3.82199301     0.74825840    -1.24922956    -1.27812208
O       1.53884601     8.44297598     3.68564499    -0.84862351    -0.28814672    -0.03863547
O       1.50221499     3.79974899     3.62307798    -0.32025853     0.03884990     0.90629260
O       3.04775700     5.96864000     3.22885199    -0.05957351     0.57182744    -0.22648702
O       2.95652499     1.40955701     3.31146301     0.03745353     1.51811562    -0.76348088
O       5.91783099     6.06414702     3.21623000     0.44813753    -0.25858057     0.35032759
O       5.84295098     1.51262602     3.27950002     0.44823909    -0.20144266     0.25927040
O       2.96147899     7.75704098     1.32203903    -0.10794009    -0.34001669     0.96246609
O       2.95033298     3.07481600     1.30306400     0.08289240     0.79804012     0.51772550
O       0.06809500     7.78215298     1.30613698    -0.63063990    -0.16132958     0.58058385
O       0.02504098     3.25363098     1.47628700    -0.69055563    -0.00238598    -0.48596053
