# total energy = -19072.23726951 eV

CRYSTAL
PRIMVEC
        7.60600008     0.00000000     0.00000000
        0.00000000     7.60600008     0.00000000
       -1.89786986    -1.89786986     4.85670466
PRIMCOORD
22 1
Ti      3.37075198     7.06447200     1.21353901     1.70653025    -1.09432799     0.03287619
Ti      4.03919698     3.06830300     1.12965399     0.79082226     0.16758482     2.19824182
Ti     -0.21058402     6.42730703     1.00313602    -0.69593104     0.30082150    -0.63360130
Ti      0.30756200     2.61181999     1.33104800    -2.09621939    -0.21927713    -0.79274622
Ti      5.92937420     2.74243623     3.52551780     0.33601245     1.04099866    -1.03470383
Ti      5.43761624    -1.25278380     3.72259383     1.57362473     0.81251647    -1.29773395
Ti      2.17199522     3.15001320     3.76783579    -1.50465924    -0.36577813    -0.55486741
Ti      1.44195022    -0.55668679     3.68184084    -0.10231452    -1.01497677     2.03471292
O       3.50881501     4.80694898     0.72987402     0.61132628     1.71696944     0.74292670
O       4.00842099     1.26657501     0.88291298    -1.48263130    -2.76936092    -0.80785223
O       0.32615501     4.30687600     0.47000100    -0.53527457    -0.11992941     1.23298969
O       6.97399798     0.71649002     0.64670900     0.53028560     0.14823109     2.33874084
O       5.82292025     4.58107925     3.86845683     0.18345959    -0.19113177     1.12095897
O      -0.48493078    -0.36933476     3.98953682     0.01131029     0.15697439    -0.56966128
O       1.57554525     4.96891125     4.13725480     0.50906036     0.90006153    -0.16709297
O       2.04610824     1.16062324     4.09652683     0.51597972    -0.65498312    -1.52440686
O       4.01178222     2.97899523     3.12017184    -0.61223748     0.03355985     1.25909257
O       0.22533420     2.81338625     3.28545580    -1.23272101    -0.28066378    -0.50726933
O       5.21387898     6.64187798     1.93906399    -0.22607050     0.00124441    -1.42210828
O       6.01767102     2.88613500     1.55289302    -1.85449857     0.57708123     0.01687159
O       1.48118601     6.64459303     1.84580798     0.28919702     0.68769965    -1.16460192
O       1.96309101     2.69632801     1.82985101     3.28494906     0.16668571    -0.50076546
