# total energy = -19514.65435151 eV

CRYSTAL
PRIMVEC
        5.93400000     0.00000000     0.00000000
        0.00000000     9.29699974     0.00000000
        0.00000000     0.00000000     4.64899994
PRIMCOORD
23 1
Ti      4.33074502     7.04541601     2.25253800     1.62976711     0.32931216    -1.80498219
Ti      4.60497298     2.24131701     2.23384402     0.88578291     2.18006258     0.38919060
Ti      1.35524998     6.91746698     2.45453798    -1.40363104     0.58854296    -1.95414789
Ti      1.48011702     2.35088898     2.38241101     0.43090034     1.46877614    -1.03559291
Ti      2.85176102     4.39034001     0.26865101     1.73674355     2.17412538    -1.81214632
Ti      3.00603100     0.47911798     4.48806301    -0.47345417    -3.20909712     2.05482872
Ti      5.88723798     4.66422099     0.05403101    -1.27216895     0.16881972    -0.06480545
Ti      5.89859900     9.22675602     4.44121897     1.49350707    -0.96417741     0.89410686
O       4.34269601     5.61702600     0.89871897     0.63659381    -1.85171124    -0.74935832
O       4.72437003     1.01858799     0.76432198    -1.30413960    -0.08229076     0.62740468
O       1.40006801     5.56956600     1.03413702     0.33802177    -1.58259300    -1.36061313
O       1.51881703     1.05988800     1.12115101     0.99754674    -1.88854539    -3.81067635
O       4.42831901     8.44794400     3.65099499    -0.20873560    -0.22904552     0.17310113
O       4.37531000     3.39182101     4.02016899     0.48391573     1.58230298    -0.45088784
O       1.70702098     8.35606100     3.53744800    -0.50533766     1.23213454     1.82633650
O       1.56137499     3.77318900     3.66805201    -0.04777317     0.94753620     2.16322776
O       3.14829502     1.30643899     2.98714499    -0.68451430     0.55524279    -0.05818434
O       5.85486202     5.93885700     3.27939101    -0.08166675     0.56085551    -0.01398372
O       0.20746600     1.43422201     3.23372402    -1.95691362    -1.24680680     1.18525997
O       2.91692099     7.44272800     1.24997699    -0.06468589     1.63216106     1.89745170
O       3.02040198     3.38629000     1.60823898     0.68264383    -2.07777480     1.87825043
O       0.00571501     7.74205902     1.34727702    -0.46660552     0.93669000     0.21091101
O       0.11024403     3.44506402     1.59703001    -0.84579658    -1.22452022    -0.18469115
