# total energy = -19943.29460341 eV

CRYSTAL
PRIMVEC
        6.14103053     0.00000000     0.00000000
        0.00003056     5.91344542     0.00000000
        0.00000000     0.00000000    10.49394331
PRIMCOORD
24 1
Ti      2.22584634     3.50430223     3.89317821     0.14884893    -0.64599762     0.52369020
Ti      3.91521474     2.40914308     6.60076545    -0.14884893     0.64599762    -0.52369020
Ti      5.29625458     2.40914511     1.35375170     0.14980307     0.64602488    -0.52371925
Ti      0.84480657     3.50430049     9.14019215    -0.14980307    -0.64602488     0.52371925
Ti      2.22583112     0.54757964     1.35379380     0.14884893    -0.64599762    -0.52369020
Ti      3.91523003     5.36586585     9.14015005    -0.14884893     0.64599762     0.52369020
Ti      0.84479129     0.54757748     6.60072342    -0.14980307    -0.64602488    -0.52371925
Ti      5.29626980     5.36586806     3.89322031     0.14980307     0.64602488     0.52371925
O       1.94368572     2.08222459     5.35497908     1.06715425     1.11386915    -0.27199685
O       4.19737543     3.83122072     5.13896459    -1.06715425    -1.11386915     0.27199685
O       1.12688706     2.08224850     0.10804103    -1.06621528     1.11370460    -0.27279800
O       5.01417415     3.83119686    10.38590240     1.06621528    -1.11370460     0.27279800
O       4.19736015     0.87449794     0.10800701    -1.06715425    -1.11386915    -0.27199685
O       1.94370100     5.03894736    10.38593642     1.06715425     1.11386915     0.27199685
O       5.01415887     0.87447409     5.35501317     1.06621528    -1.11370460    -0.27279800
O       1.12690216     5.03897127     5.13893056    -1.06621528     1.11370460     0.27279800
O       0.22313654     3.59689274     2.83467596    -0.08728359    -0.13320659     0.16181424
O       5.91792461     2.31655262     7.65926771     0.08728359     0.13320659    -0.16181424
O       3.29365724     2.31649758     2.41232924    -0.08716429     0.13329761    -0.16194665
O       2.84740385     3.59694778     8.08161431     0.08716429    -0.13329761     0.16194665
O       0.22312125     0.64016997     2.41229570    -0.08728359    -0.13320659    -0.16181424
O       5.91793983     5.27327540     8.08164779     0.08728359     0.13320659     0.16181424
O       2.84738863     0.64022501     7.65930120     0.08716429    -0.13329761    -0.16194665
O       3.29367252     5.27322030     2.83464247    -0.08716429     0.13329761     0.16194665
