# total energy = -19074.11466128 eV

CRYSTAL
PRIMVEC
        7.60600008     0.00000000     0.00000000
        0.00000000     7.60600008     0.00000000
       -1.89786986    -1.89786986     4.85670466
PRIMCOORD
22 1
Ti      3.71354300     6.65039900     1.19357903    -1.15103858    -0.94966404     0.60343402
Ti      3.71688798     2.76373101     1.25944498     2.07245441     3.38005240    -0.51195851
Ti     -0.27183200     6.59929498     1.26748699     1.51318142     0.26362199     0.73964289
Ti      0.03932501     3.01733698     1.33394202    -0.70501963    -0.23032028    -1.71722604
Ti      5.64673021     3.03073824     3.50847983    -0.32255144     0.01919766    -0.26071330
Ti      5.64599920    -1.08875679     3.82475484     1.02761015    -0.11138434    -1.16387301
Ti      2.04340425     2.96402825     3.68266979    -0.87759780     0.02410179     0.61073519
Ti      1.80645423    -0.86723176     3.71633483     0.45330905     0.32345158    -1.91990206
O       3.88620200     4.86993700     0.81967402    -0.29133901    -0.73260681    -0.00537309
O       3.85812502     1.09367200     0.74600202     0.27763476    -2.03792886     0.57224113
O       0.19737502     4.81929299     0.58499799    -0.67743837    -0.42215036     0.63706843
O       0.10273003     0.92532601     0.84579897    -0.60730173     0.58352982    -0.08515780
O       5.12991025     4.77505420     3.64763879    -0.02651014     1.31085326     2.22104829
O       0.06593220    -0.89715377     3.32679783    -3.35697931     0.14246051    -0.76933246
O       1.74183920     4.78405921     4.18242981     0.67158679     1.78405598    -1.45638778
O       1.82687423     1.22252121     4.04124882    -0.73037997    -3.15663245     0.17481785
O       3.80364320     2.60299321     3.29216180     0.00595751    -0.08876428    -0.87812641
O      -0.16117580     3.22422920     3.08858181     2.38050662    -0.49420786     1.76297472
O       5.53759301     6.52438200     1.74825600     1.20225266     1.14180317     0.21198136
O       5.65954402     3.09127601     1.54843899    -0.18603301    -1.01128647    -0.33443123
O       1.89981999     6.54160698     1.71014900     0.85633502     0.58539490     0.75082874
O       1.97641898     3.07680201     1.58110002    -1.52863915    -0.32357757     0.81770932
