# total energy = -4989.48139311 eV

CRYSTAL
PRIMVEC
        3.64220643     0.00000000     0.00000000
        0.54326704     3.60146200     0.00000000
       -2.09276956    -1.80075924     4.66146894
PRIMCOORD
6 1
Ti      0.40731784     2.70123416     1.16536698     0.00176841    -0.00176841     0.00000000
Ti      1.68538646    -0.90053107     3.49610145    -0.00176841     0.00176841     0.00000000
O       0.13585507     0.90036011     0.75931508     0.00002417     0.00073894     0.53971281
O       1.95684906     0.90034283     3.90215336    -0.00002417    -0.00073894    -0.53971281
O      -0.13583279    -0.90034094     3.09004955     0.00073894     0.00002417     0.53971281
O       2.22853687     2.70104389     1.57141889    -0.00073894    -0.00002417    -0.53971281
