# total energy = -19075.26610796 eV

CRYSTAL
PRIMVEC
        7.60600008     0.00000000     0.00000000
        0.00000000     7.60600008     0.00000000
       -1.89786986    -1.89786986     4.85670466
PRIMCOORD
22 1
Ti      4.04948901     6.64007301     1.13697198     0.38235326    -0.60002628     0.93801746
Ti      3.55490402     2.70484702     1.19152698     1.55386631     0.45890506    -0.68411964
Ti      0.18963601     6.77928202     1.10946000    -2.10257593    -0.22140163    -0.70786070
Ti     -0.14382598     2.94900797     1.13148701    -1.36890442    -0.04810484     0.87427156
Ti      5.58237823     2.81763422     3.60960581     0.32694443     0.34824911    -0.91533055
Ti     -1.31334179    -0.86722975     3.74419681    -0.65285347    -0.87619706    -0.29768526
Ti      1.81746720     2.87534724     3.72572180    -0.47266124    -2.37984508    -0.42388457
Ti      1.47576221    -1.06043480     3.68681780     1.34048550     1.23043041     1.05510888
O       3.78710700     4.59564200     0.80685100    -0.63228772     1.36947058    -0.05453106
O       4.02639698     0.82322798     0.71527000    -1.19694153    -0.12924195     1.12667068
O       7.28913002     4.83866501     0.70602998     0.65098248    -0.39210006    -0.22841380
O      -0.19263200     0.98800298     0.65469799     0.41033896     0.42005131     1.71153104
O      -1.51542775     4.85372423     4.07207583    -0.34876770    -0.13461941    -0.73613256
O       5.57375523     0.90721222     3.93891483     0.77396996     1.67573768     0.67328732
O       2.32028222     4.60061325     4.16742679    -0.77698458     1.75571290    -0.96519223
O       1.93410120     0.78770224     4.03856181    -1.27975679    -0.19337505    -0.32370329
O       3.63694422     2.66800623     3.13102283     0.83816143     0.16198367     0.61210224
O      -0.06934180     3.08869823     3.24173782     0.22457052    -1.22700545    -0.37396298
O       5.76632199     6.72576702     1.93694998    -0.06373330    -0.42028065    -0.74590353
O       5.52429103     2.92449701     1.61419302     1.60265507    -0.44335502     0.68930247
O       1.86464002     6.66609498     1.87102999     1.65091161    -0.28664340    -0.77677812
O       1.75527401     2.87730800     1.61756399    -0.85977259    -0.06834483    -0.44679362
