# total energy = -19960.09802840 eV

CRYSTAL
PRIMVEC
        7.60600008     0.00000000     0.00000000
        0.00000000     7.60600008     0.00000000
       -1.89786986    -1.89786986     4.85670466
PRIMCOORD
24 1
Ti      3.83564700     6.62028701     1.19360802    -0.88920067    -1.89375651    -0.22659115
Ti      3.80415301     2.64209200     1.21813999    -0.33969608     1.10316359    -0.88084896
Ti     -0.07273600     6.73328700     1.18096699     0.72738027    -0.63894663     0.98525198
Ti     -0.03229399     2.84994398     1.21071400     0.59917782     0.27843849     1.56763689
Ti      5.64504721     2.88420223     3.62354381     0.96504825     1.27883273     0.75906167
Ti      5.64999925    -0.76974276     3.62422079     1.09619564    -1.57305266     0.10525329
Ti      1.98022921     2.71912322     3.65928079    -1.68986306     0.40823425     0.41413982
Ti      1.99429623    -1.01669179     3.61907581    -1.18921099    -0.15525355    -1.14798050
O       3.91726301     4.67262998     0.70279999    -0.58708694    -0.72487293     0.89634192
O       3.92837499     0.76594999     0.78362001    -0.45563050     3.74751126    -0.30638768
O      -0.08132200     4.84579901     0.86604498     0.35777737    -0.58431375    -0.73858591
O      -0.04448603     0.89644399     0.88918601     0.21927507     3.18774256    -0.90574162
O       5.38370223     4.93620021     4.06535580     0.92295130    -1.66792563    -0.37766923
O       5.52486323     1.08297124     4.20035882     0.20422589    -0.81505389    -1.13167842
O       2.14869321     4.69907620     4.10074183    -0.67338837     0.06462085    -1.17686377
O       2.14692121     0.86710921     3.95211182    -1.19854692     0.17801451     1.79258562
O       3.75540023     2.73004120     3.22234184     1.63384668     0.40205743    -1.30679195
O       3.75242620    -0.78357080     3.13050381     1.73672015    -0.52090389     1.02542831
O      -0.03320476     2.83698623     3.23546681    -0.72203880     0.28130399     0.24840234
O      -0.03867677    -0.66909976     3.26869480    -0.08965440    -0.95823148     0.18086792
O       5.68879498     6.75447599     1.70745898     0.11283342    -0.41345565     0.09431890
O       5.66958997     2.70552098     1.57780097    -0.35276551     0.35151698     1.09490520
O       1.96866299     6.85091701     1.68276699    -1.31297391    -1.34746244    -0.80083131
O       1.85213900     2.77205602     1.57443101     0.92462483     0.01179211    -0.16422336
