# total energy = -4985.56012413 eV

CRYSTAL
PRIMVEC
        3.68498179     0.00000000     0.00000000
        1.73410269     3.25145793     0.00000000
       -2.70957686    -1.62574974     4.86660612
PRIMCOORD
6 1
Ti      1.30049007     2.43871866     1.21665121     0.00066129    -0.00066129     0.00000000
Ti      1.40901741    -0.81301060     3.64995431    -0.00066129     0.00066129     0.00000000
O       0.43356386     0.81286034     0.79273027     0.00038489     0.00031933    -3.03900778
O       2.27594347     0.81284772     4.07387530    -0.00038489    -0.00031933     3.03900778
O      -0.43352884    -0.81283929     3.22603333     0.00031933     0.00038489    -3.03900778
O       3.14303609     2.43854726     1.64057219    -0.00031933    -0.00038489     3.03900778
