# total energy = -19517.56696860 eV

CRYSTAL
PRIMVEC
        5.93400000     0.00000000     0.00000000
        0.00000000     9.29699974     0.00000000
        0.00000000     0.00000000     4.64899994
PRIMCOORD
23 1
Ti      4.44292398     7.03080299     2.25631702    -0.51958389     0.47277668     0.34914077
Ti      4.46893902     2.36250601     2.31654998     1.03822675    -1.72483137     0.44235126
Ti      1.33957702     6.97233499     2.15320302     0.58237437     0.28477626     0.44775984
Ti      1.49833898     2.34036301     2.33231502    -0.71514361    -0.98537797     0.75388964
Ti      2.98463002     4.52651399     0.21038802     0.43229876     0.03273324    -0.12753062
Ti      3.02272401     0.02611500     4.62477098    -0.14365916     0.87274766     0.35522143
Ti      5.92169197     4.58881699     0.01594898     0.11207623     0.21246807    -0.29529696
Ti      0.06428800     9.26180602     4.58166098    -0.61011067     1.07356529    -0.28527146
O       4.60417800     5.53872000     1.02250999    -1.60072648     0.36294631    -0.48417233
O       4.43208500     0.97043101     0.91213399    -0.10868494    -0.24546537    -0.62040228
O       1.48898402     5.42893202     1.02493701     0.61260901     1.30907149     0.04724250
O       1.44526001     0.84004698     0.81587300    -0.23865477     1.56765026     1.27974599
O       4.32040902     8.40324302     3.74407298     1.07477114    -1.20744911    -1.01946438
O       4.49712898     3.66474799     3.90604398    -0.81033128     0.56677676    -0.57913272
O       1.38647398     8.50203301     3.60571599     0.70205309    -1.15162916    -0.40662731
O       1.56143601     3.67425000     3.83101601     0.30086675     0.31455222    -0.32463866
O       3.04812002     1.40703098     3.15510299    -1.40044030     0.09727027     0.39338356
O       0.01670401     6.19200302     3.26390299    -0.05436985    -0.58755000     0.28610630
O       5.86164401     1.47989800     3.18723802     1.51995628    -0.67620244     0.46112341
O       2.93799998     7.96942500     1.38281202    -0.01830755    -1.54781933     0.73258958
O       3.05621399     3.26436602     1.52170602    -1.70584479     0.78404226    -0.51616304
O       5.84261998     7.82947698     1.31991501     0.39740374     0.65837697    -0.43351926
O       5.90556001     3.38225603     1.55653398     1.15322119    -0.48342928    -0.45633498
