# total energy = -19911.17394696 eV

CRYSTAL
PRIMVEC
        8.04311963     0.00000000     0.00000000
        0.00002634     3.66870485     0.00000000
        0.00000000     0.00000000    12.24099943
PRIMCOORD
24 1
Ti      2.91525949     2.17407111     4.54132349     0.00956014    -0.08023876     2.46523376
Ti      5.12788612     1.49463380     7.69967612    -0.00956014     0.08023876    -2.46523376
Ti      6.93668164     1.49463504     1.57912736     0.01164042     0.08049741    -2.46606808
Ti      1.10646397     2.17406998    10.66187237    -0.01164042    -0.08049741     2.46606808
Ti      2.91524650     0.33971875     1.57917647     0.00956014    -0.08023876    -2.46523376
Ti      5.12789912     3.32898622    10.66182326    -0.00956014     0.08023876     2.46523376
Ti      1.10645098     0.33971738     7.69962702    -0.01164042    -0.08049741    -2.46606808
Ti      6.93669464     3.32898759     4.54137259     0.01164042     0.08049741     2.46606808
O       2.54570733     1.29181333     6.24648836     2.45658637     0.60679163    -1.49375724
O       5.49743829     2.37689152     5.99451125    -2.45658637    -0.60679163     1.49375724
O       1.47591788     1.29182813     0.12602794    -2.45602818     0.60612263    -1.49227988
O       6.56722780     2.37687678    12.11497132     2.45602818    -0.60612263     1.49227988
O       5.49742535     0.54253909     0.12598823    -2.45658637    -0.60679163    -1.49375724
O       2.54572026     3.12616581    12.11501103     2.45658637     0.60679163     1.49375724
O       6.56721486     0.54252429     6.24652807     2.45602818    -0.60612263    -1.49227988
O       1.47593069     3.12618061     5.99447154    -2.45602818     0.60612263     1.49227988
O       0.29224104     2.23151424     3.30659936    -1.50672846     0.39511957     0.20650208
O       7.75090458     1.43719061     8.93440025     1.50672846    -0.39511957    -0.20650208
O       4.31381108     1.43715643     2.81393936    -1.50781115    -0.39492982    -0.20626554
O       3.72933453     2.23154848     9.42706007     1.50781115     0.39492982     0.20626554
O       0.29222810     0.39716182     2.81390030    -1.50672846     0.39511957    -0.20650208
O       7.75091751     3.27154309     9.42709914     1.50672846    -0.39511957     0.20650208
O       3.72932160     0.39719600     8.93443925     1.50781115     0.39492982    -0.20626554
O       4.31382402     3.27150891     3.30656030    -1.50781115    -0.39492982     0.20626554
