# total energy = -19071.66345627 eV

CRYSTAL
PRIMVEC
        5.93400000     0.00000000     0.00000000
        0.00000000     9.29699974     0.00000000
        0.00000000     0.00000000     4.64899994
PRIMCOORD
22 1
Ti      4.41640199     6.75529500     2.29905898    -0.88523809    -0.41504768     0.06257065
Ti      4.42115802     2.45383401     2.05952500     0.92959915    -0.32876734     0.42652329
Ti      1.39861298     7.31195698     2.68920602    -0.01823273    -2.14043235    -0.83078287
Ti      1.57461803     2.35432700     2.15266898    -1.48489670     0.49158714     0.28481817
Ti      3.11827802     4.54598300     4.55836897    -0.46421465     1.20092185    -1.46032980
Ti      3.03841797     0.23354502     0.08222801    -0.62785411    -0.03516473     0.22160269
Ti      5.88419199     4.37840500     4.22465001     2.37644325     0.06347208     1.89740027
Ti      5.93387999     9.28781201     0.29077898    -0.75688214     0.10290870     1.23312750
O       4.55060399     5.23905502     0.84332999    -0.13349918     1.38923800     2.16745465
O       4.28898399     0.64013402     1.39948602     1.46731421     0.64629124    -0.69461232
O       1.50853998     0.59693702     1.45263097    -0.51509937     0.59879472    -0.86633970
O       4.45894202     8.56053001     4.05826599    -0.46907763    -0.06462265    -1.83817463
O       4.48313701     4.15313202     3.25934302    -3.09560601    -2.36420942    -2.11122255
O       1.45697600     8.35878002     4.03968102     0.39913795     2.87320679     1.25316180
O       1.56120301     3.93828098     3.41107401    -0.13931425    -0.28003900     0.01785195
O       2.82564998     6.21144599     3.58321701     0.41351710    -0.63735100    -0.29324342
O       3.02892898     1.86851598     3.08496102     0.20602694    -2.45488250     4.57267062
O       5.91198898     6.16489602     3.53907897     0.15909144     0.67952379    -1.49915656
O       2.80576202     7.67986899     1.62427501     1.96813803    -0.12490115    -1.12253737
O       2.98940500     2.86766698     0.97907200    -0.70973246     1.94883907    -2.10283766
O       5.80841502     7.82260900     1.44727099     0.12498600    -1.62154394     1.59350194
O       5.88597600     2.90503700     1.02532400     1.25539301     0.47217890    -0.91144715
