# total energy = -19953.78926526 eV

CRYSTAL
PRIMVEC
        5.89259417     0.00000000     0.00000000
        0.00002489     4.63545815     0.00000000
        0.00000000     0.00000000     9.38191768
PRIMCOORD
24 1
Ti      2.13579674     2.74696824     3.48062455    -0.07478391     1.03208464    -1.80361745
Ti      3.75682238     1.88849006     5.90129319     0.07478391    -1.03208464     1.80361745
Ti      5.08199206     1.88849168     1.21029684    -0.07281573    -1.03190364     1.80456028
Ti      0.81062706     2.74696684     8.17162100     0.07281573     1.03190364    -1.80456028
Ti      2.13578440     0.42923927     1.21033445    -0.07478391     1.03208464     1.80361745
Ti      3.75683472     4.20621919     8.17158339     0.07478391    -1.03208464    -1.80361745
Ti      0.81061472     0.42923750     5.90125557     0.07281573     1.03190364     1.80456028
Ti      5.08200440     4.20622096     3.48066216    -0.07281573    -1.03190364    -1.80456028
O       1.86505206     1.63222365     4.78752078     0.90572619    -0.80725522     1.17104305
O       4.02756711     3.00323466     4.59439695    -0.90572619     0.80725522    -1.17104305
O       1.08129707     1.63224235     0.09659212    -0.90529681    -0.80800675     1.17122663
O       4.81132216     3.00321601     9.28532535     0.90529681     0.80800675    -1.17122663
O       4.02755477     0.68550553     0.09656168    -0.90572619     0.80725522     1.17104305
O       1.86506440     3.94995277     9.28535579     0.90572619    -0.80725522    -1.17104305
O       4.81130982     0.68548689     4.78755122     0.90529681     0.80800675     1.17122663
O       1.08130931     3.94997147     4.59436651    -0.90529681    -0.80800675    -1.17122663
O       0.21410673     2.81954841     2.53429003     0.44588653    -0.29317580     0.64177561
O       5.67851245     1.81590990     6.84762771    -0.44588653     0.29317580    -0.64177561
O       3.16041017     1.81586666     2.15669868     0.44614133     0.29333033    -0.64172882
O       2.73220901     2.81959170     7.22521890    -0.44614133    -0.29333033     0.64172882
O       0.21409439     0.50181934     2.15666871     0.44588653    -0.29317580    -0.64177561
O       5.67852479     4.13363902     7.22524887    -0.44588653     0.29317580     0.64177561
O       2.73219666     0.50186257     6.84765762    -0.44614133    -0.29333033    -0.64172882
O       3.16042251     4.13359574     2.53426006     0.44614133     0.29333033     0.64172882
