# total energy = -4989.67808905 eV

CRYSTAL
PRIMVEC
        3.87350625     0.00000000     0.00000000
       -0.00000782     3.50460128     0.00000000
       -1.93678045    -1.75233582     4.71985285
PRIMCOORD
6 1
Ti     -0.00016932     2.62858265     1.17996298    -0.00064072    -0.00354324     2.97541178
Ti      1.93688699    -0.87631708     3.53988930     0.00064072     0.00354324    -2.97541178
O       0.00003935     0.87614372     0.76882538     0.00062349     0.00242815     0.08693237
O       1.93667816     0.87612174     3.95102700    -0.00062349    -0.00242815    -0.08693237
O      -0.00001986    -0.87613147     3.12875170    -0.00007688    -0.00003985     0.51795792
O       1.93673737     2.62839688     1.59110068     0.00007688     0.00003985    -0.51795792
