# total energy = -19960.41468578 eV

CRYSTAL
PRIMVEC
        5.31177484     0.00000000     0.00000000
        0.56395267     5.62513561     0.00000000
        0.00000000     0.00000000     9.51884238
PRIMCOORD
24 1
Ti      2.25946079     3.33345018     3.53142272     0.39202062    -0.80958875     0.53387871
Ti      3.61626689     2.29168547     5.98741999    -0.39202062     0.80958875    -0.53387871
Ti      4.81081786     2.29168738     1.22796061    -0.52873419    -0.21952087     0.17716990
Ti      1.06490983     3.33344854     8.29088226     0.52873419     0.21952087    -0.17716990
Ti      1.97748456     0.52088243     1.22799880     0.39172597    -0.81010348    -0.53004314
Ti      3.89824313     5.10425344     8.29084407    -0.39172597     0.81010348     0.53004314
Ti      0.78293353     0.52088036     5.98738186     0.52824337     0.21978801     0.16974969
Ti      5.09279410     5.10425546     3.53146090    -0.52824337    -0.21978801    -0.16974969
O       1.87978766     1.98070589     4.85739253     0.54826713     0.68839770    -0.28160146
O       3.99594002     3.64442982     4.66145018    -0.54826713    -0.68839770     0.28160146
O       1.17328783     1.98072864     0.09800182    -0.20831497     0.01210039     0.30760792
O       4.70243990     3.64440712     9.42084067     0.20831497    -0.01210039    -0.30760792
O       3.71396378     0.83186185     0.09797096    -0.54816608    -0.68894457    -0.28237588
O       2.16176390     4.79327386     9.42087153     0.54816608     0.68894457     0.28237588
O       4.42046367     0.83183915     4.85742345     0.20863430    -0.01241920     0.30844508
O       1.45526396     4.79329656     4.66141932    -0.20863430     0.01241920    -0.30844508
O       0.53601703     3.42152648     2.57127687    -0.01963475     0.13716789     0.14374323
O       5.33971059     2.20360923     6.94756584     0.01963475    -0.13716789    -0.14374323
O       3.06980656     2.20355685     2.18817476     0.42492329     0.20697388    -0.14449271
O       2.80592112     3.42157881     7.33066785    -0.42492329    -0.20697388     0.14449271
O       0.25404079     0.60895850     2.18814433    -0.01943240     0.13719360    -0.14538874
O       5.62168683     5.01617715     7.33069822     0.01943240    -0.13719360     0.14538874
O       2.52394488     0.60901089     6.94759622    -0.42466875    -0.20673117    -0.14341130
O       3.35178280     5.01612482     2.57124649     0.42466875     0.20673117     0.14341130
