# total energy = -19931.58588253 eV

CRYSTAL
PRIMVEC
        6.11501884     0.00000000     0.00000000
        0.64923332     6.47576587     0.00000000
        0.00000000     0.00000000    10.95827709
PRIMCOORD
24 1
Ti      2.60113534     3.83753289     4.06544274    -0.02057680    -1.34132445     0.73763306
Ti      4.16311700     2.63823303     6.89283472     0.02057680     1.34132445    -0.73763306
Ti      5.53830739     2.63823523     1.41365222     0.05493190     0.30062172    -0.46157104
Ti      1.22594498     3.83753101     9.54462543    -0.05493190    -0.30062172     0.46157104
Ti      2.27651881     0.59965002     1.41369618    -0.02057680    -1.34132445    -0.73763306
Ti      4.48773355     5.87611616     9.54458147     0.02057680     1.34132445     0.73763306
Ti      0.90132836     0.59964763     6.89279083    -0.05493190    -0.30062172    -0.46157104
Ti      5.86292394     5.87611848     4.06548670     0.05493190     0.30062172     0.46157104
O       2.16404823     2.28022726     5.59192506     1.56794028     1.61376404    -0.27437332
O       4.60020412     4.19553872     5.36635240    -1.56794028    -1.61376404     0.27437332
O       1.35071185     2.28025345     0.11282161    -1.12419702     0.82777803     0.37692566
O       5.41354057     4.19551259    10.84545560     1.12419702    -0.82777803    -0.37692566
O       4.27558757     0.95765559     0.11278608    -1.56794028    -1.61376404    -0.27437332
O       2.48866478     5.51811039    10.84549113     1.56794028     1.61376404     0.27437332
O       5.08892403     0.95762946     5.59196065     1.12419702    -0.82777803     0.37692566
O       1.67532826     5.51813653     5.36631687    -1.12419702     0.82777803    -0.37692566
O       0.61707326     3.93892804     2.96010410     0.43498119     0.42356318     0.82342258
O       6.14717903     2.53683795     7.99817336    -0.43498119    -0.42356318    -0.82342258
O       3.53402121     2.53677764     2.51906947     0.56913986     0.88371445     0.12928591
O       3.23023114     3.93898828     8.43920786    -0.56913986    -0.88371445    -0.12928591
O       0.29245672     0.70104491     2.51903444     0.43498119     0.42356318    -0.82342258
O       6.47179557     5.77472101     8.43924283    -0.43498119    -0.42356318     0.82342258
O       2.90561460     0.70110522     7.99820833    -0.56913986    -0.88371445     0.12928591
O       3.85863776     5.77466077     2.96006913     0.56913986     0.88371445    -0.12928591
