# total energy = -4988.82162927 eV

CRYSTAL
PRIMVEC
        4.20438045     0.00000000     0.00000000
       -0.00000783     3.43994745     0.00000000
       -2.10221828    -1.72001303     4.92720308
PRIMCOORD
6 1
Ti     -0.00018248     2.58008880     1.23180090    -0.00226489    -0.00380832     5.01857720
Ti      2.10233682    -0.86015459     3.69540234     0.00226489     0.00380832    -5.01857720
O       0.00004337     0.85997962     0.80260118     0.00089449     0.00299611    -0.98257238
O       2.10211087     0.85995448     4.12460212    -0.00089449    -0.00299611     0.98257238
O      -0.00002034    -0.85997180     3.26620261    -0.00165168    -0.00034401    -0.63495653
O       2.10217447     2.57990589     1.66100063     0.00165168     0.00034401     0.63495653
