# total energy = -4987.77945376 eV

CRYSTAL
PRIMVEC
        4.37266942     0.00000000     0.00000000
       -0.00000883     3.95622516     0.00000000
       -2.18636556    -1.97815229     5.32808131
PRIMCOORD
6 1
Ti     -0.00019114     2.96731752     1.33202007    -0.00159331    -0.00005142     1.31038815
Ti      2.18648583    -0.98924454     3.99606060     0.00159331     0.00005142    -1.31038815
O       0.00004443     0.98904884     0.86790082    -0.00040855    -0.00131306    -0.66886014
O       2.18625008     0.98902403     4.46017997     0.00040855     0.00131306     0.66886014
O      -0.00002242    -0.98903501     3.53194135    -0.00218107    -0.00030493    -1.40075166
O       2.18631693     2.96710782     1.79613943     0.00218107     0.00030493     1.40075166
