# total energy = -19947.93462033 eV

CRYSTAL
PRIMVEC
        5.73527151     0.00000000     0.00000000
        0.91051899     6.03577190     0.00000000
        0.00000000     0.00000000    10.29402605
PRIMCOORD
24 1
Ti      2.61833276     3.57679278     3.81901028     0.12677652    -1.49143373     0.80576295
Ti      4.02745767     2.45897895     6.47501601    -0.12677652     1.49143373    -0.80576295
Ti      5.31724777     2.45898099     1.32796170    -0.27319678    -0.12641142    -0.15624600
Ti      1.32854267     3.57679097     8.96606470     0.27319678     0.12641142     0.15624600
Ti      2.16307339     0.55890694     1.32800298     0.12677652    -1.49143373    -0.80576295
Ti      4.48271705     5.47686497     8.96602342    -0.12677652     1.49143373     0.80576295
Ti      0.87328327     0.55890472     6.47497472     0.27319678     0.12641142    -0.15624600
Ti      5.77250717     5.47686718     3.81905156    -0.27319678    -0.12641142     0.15624600
O       2.13585883     2.12529782     5.25296275     1.39250382     1.54477720    -0.41650293
O       4.50993159     3.91047391     5.04106348    -1.39250382    -1.54477720     0.41650293
O       1.37303252     2.12532222     0.10598276    -0.74859445     0.37129752     0.56235806
O       5.27275797     3.91044957    10.18804323     0.74859445    -0.37129752    -0.56235806
O       4.05467221     0.89258789     0.10594937    -1.39250382    -1.54477720    -0.41650293
O       2.59111822     5.14318384    10.18807662     1.39250382     1.54477720     0.41650293
O       4.81749858     0.89256355     5.25299620     0.74859445    -0.37129752     0.56235806
O       1.82829179     5.14320825     5.04103009    -0.74859445     0.37129752    -0.56235806
O       0.76220493     3.67129861     2.78067330     0.29340386     0.65332193     0.84268426
O       5.88358549     2.36447306     7.51335299    -0.29340386    -0.65332193    -0.84268426
O       3.43270400     2.36441693     2.36637259     0.65518263     0.89643345     0.16543178
O       3.21308643     3.67135475     7.92765352    -0.65518263    -0.89643345    -0.16543178
O       0.30694555     0.65341259     2.36633967     0.29340386     0.65332193    -0.84268426
O       6.33884487     5.38235908     7.92768638    -0.29340386    -0.65332193     0.84268426
O       2.75782704     0.65346873     7.51338579    -0.65518263    -0.89643345     0.16543178
O       3.88796338     5.38230294     2.78064044     0.65518263     0.89643345    -0.16543178
