# total energy = -19898.77084703 eV

CRYSTAL
PRIMVEC
        6.80895258     0.00000000     0.00000000
        2.78725675     6.68932613     0.00000000
        0.00000000     0.00000000    12.44777316
PRIMCOORD
24 1
Ti      4.11964364     3.96408860     4.61803506    -0.33648837    -1.92703919     0.42727122
Ti      5.47656579     2.72523772     7.82973824     0.33648837     1.92703919    -0.42727122
Ti      7.00781378     2.72524000     1.60580183     0.08151069    -1.09907142     0.12344514
Ti      2.58839571     3.96408659    10.84197154    -0.08151069     1.09907142    -0.12344514
Ti      2.72601540     0.61942550     1.60585173    -0.33648837    -1.92703919    -0.42727122
Ti      6.87019408     6.06990102    10.84192163     0.33648837     1.92703919     0.42727122
Ti      1.19476731     0.61942304     7.82968827    -0.08151069     1.09907142     0.12344514
Ti      8.40144217     6.06990348     4.61808496     0.08151069    -1.09907142    -0.12344514
O       3.13651695     2.35542552     6.35200338     1.76338507     1.97168333    -0.73808583
O       6.45969242     4.33390082     6.09576991    -1.76338507    -1.97168333     0.73808583
O       2.23089139     2.35545255     0.12815681    -0.27610187    -0.70244981     1.53201887
O       7.36531814     4.33387389    12.31961608     0.27610187     0.70244981    -1.53201887
O       5.06606415     0.98923759     0.12811639    -1.76338507    -1.97168333    -0.73808583
O       4.53014529     5.70008873    12.31965649     1.76338507     1.97168333     0.73808583
O       5.97168979     0.98921061     6.35204373     0.27610187     0.70244981     1.53201887
O       3.62451953     5.70011580     6.09572950    -0.27610187    -0.70244981    -1.53201887
O       1.94275258     4.06882755     3.36245410     0.60813580     2.65041188     2.53039634
O       7.65345679     2.62049879     9.08531920    -0.60813580    -2.65041188    -2.53039634
O       4.74373804     2.62043653     2.86147214     0.50735572     2.09132657     1.63425625
O       4.85247133     4.06888980     9.58630095    -0.50735572    -2.09132657    -1.63425625
O       0.54912430     0.72416425     2.86143235     0.60813580     2.65041188    -2.53039634
O       9.04708514     5.96516207     9.58634068    -0.60813580    -2.65041188     2.53039634
O       3.45884306     0.72422657     9.08535886    -0.50735572    -2.09132657     1.63425625
O       6.13736631     5.96509976     3.36241437     0.50735572     2.09132657    -1.63425625
