# total energy = -19072.26569331 eV

CRYSTAL
PRIMVEC
        5.93400000     0.00000000     0.00000000
        0.00000000     9.29699974     0.00000000
        0.00000000     0.00000000     4.64899994
PRIMCOORD
22 1
Ti      4.43037402     6.84794002     2.48447100    -0.29833858     0.07670272    -0.49246285
Ti      4.38044900     2.31561599     2.16717801     1.11485748     0.32313045     0.98254564
Ti      1.50548800     7.20623800     2.58333501     0.27285251     0.79470566     1.17229235
Ti      1.63487301     2.37095501     1.96101701    -1.22327066     0.97731910     0.79518825
Ti      2.96340001     4.65183702     4.40860599     0.78853346     0.15273721     0.81619006
Ti      2.99686899     0.07096002     0.15304399     1.02869207    -0.32702696    -1.03286189
Ti      5.79466102     4.46578597     4.20779598     1.41280243    -0.44247879     1.52178819
Ti      0.00815901     9.17186203     0.35020702    -1.66326962    -0.49770534    -0.18314052
O       4.27244398     5.45029199     0.89415001     0.33896845     0.08635439     0.97079621
O       4.38836200     0.69908897     1.29798199     1.66027300    -0.17405629    -1.19480314
O       1.49422103     0.58717402     1.30556098     0.01321136     2.47049475     0.12168907
O       4.48102998     8.28069399     4.06477302    -0.23797008     1.62572662    -0.21986797
O       4.31972702     4.11627202     3.21861701    -0.42034493    -1.42154058    -0.62522439
O       1.45905799     8.46577399     4.04143900     0.15264285    -0.09707152    -1.33145295
O       1.52747902     4.02808299     3.23657099    -0.49689492    -0.43402063     0.32323947
O       2.92901000     6.37616199     3.62077399    -0.76695059    -1.01701617    -0.72234784
O       3.08441501     1.50808102     3.21736302    -0.63162232    -0.04943282     1.53323346
O       0.00765201     6.31851501     3.60464800     0.46430566    -1.46721342    -0.81801914
O       2.96502501     7.99980898     1.74617703     0.29906286    -1.34371840    -0.61737352
O       3.13627502     2.79529802     0.94456102    -1.05187726     2.52048782    -1.46080083
O       5.93062798     7.98478198     1.71837897    -0.53902118    -1.78474709     0.32596278
O       0.11193702     3.05496402     0.95818098    -0.21664200     0.02836931     0.13542905
