# total energy = -19074.24178993 eV

CRYSTAL
PRIMVEC
        5.17600016     0.00000000     0.00000000
        0.00000000     5.50899976     0.00000000
        0.00000000     0.00000000     9.26300011
PRIMCOORD
22 1
Ti      1.81600202     3.35900101     3.29562802     0.49402043     1.22210415     0.32553752
Ti      3.71028200     2.38242001     5.91440600     0.66623710    -0.69528183    -0.65379630
Ti      4.29973502     2.41563700     1.20746702    -0.67789088    -1.01402418    -1.13641259
Ti      0.82607500     3.16289899     8.13255500    -0.44574281     0.38698999     0.48753456
Ti      1.74470501     0.60603898     1.26449798     1.64869686    -0.69434415    -1.75705913
Ti      3.21684601     4.90703799     7.84556598     0.68547487     2.04480887     2.72260437
Ti      0.77415102     0.09845898     6.05624000    -1.20375238     1.72524814    -0.48416204
Ti      4.47682398     5.04932402     3.40326198    -0.80064285     0.60181783     1.03738137
O       3.47810500     3.53832802     4.39783099    -0.15345892    -0.76412186     1.40714060
O       0.77293502     1.98091201     0.39007602     0.76674490     0.44058363    -1.84971606
O       4.30673598     3.64493898     9.00189500    -0.37095145    -0.02504101     0.31081461
O       3.38838400     0.80086003     0.19486698    -0.77887125     0.70478309    -0.20486558
O       1.56835802     4.69117902     8.91747599     0.03587307     0.66117536     0.69758683
O       4.22192199     0.79221401     4.99142202     0.90380892    -1.05559045    -1.40927822
O       1.02542200     4.83440899     4.36621201    -0.62026036    -0.16221662     1.11301863
O       0.07845799     3.50098499     2.47164400    -0.20657613    -0.11387960     0.06713744
O       0.21170598     1.92753200     6.79773798    -0.45885415    -0.25704562    -0.28552780
O       2.65046702     2.08607101     2.28526799    -0.10028746    -1.32307655    -0.38676759
O       2.60179398     3.39646301     7.08536598    -1.78802705    -1.55604507    -0.96324025
O       5.02527000     0.79916502     2.14592900     0.84432951    -1.26868047     1.41046452
O       2.43932302     0.67280601     6.66149997     0.43012052     0.18557767    -0.11177669
O       2.52802498     4.71092898     2.34252798     1.13000951     0.95625867    -0.33661795
