# total energy = -19961.42674862 eV

CRYSTAL
PRIMVEC
        7.60600008     0.00000000     0.00000000
        0.00000000     7.60600008     0.00000000
       -1.89786986    -1.89786986     4.85670466
PRIMCOORD
24 1
Ti      3.76805302     6.66045099     1.21865700     0.44960075     0.68000073     0.50104263
Ti      3.81426400     2.93574298     1.20374801    -0.53934077    -0.60022271     0.52578179
Ti      0.03401599     6.64703899     1.20142403    -0.15482623    -0.25992808     0.10474498
Ti     -0.00431999     2.82297102     1.26622601     0.30708265     0.01044742    -1.78294655
Ti      5.78497924     2.79326524     3.65641980    -1.72438297    -0.76315024     0.54340208
Ti      5.74345624    -1.03921977     3.63672879    -0.94465913     0.83373167    -1.06707171
Ti      1.83930820     2.86019520     3.61463982     1.29304708     0.81557788     0.16926941
Ti      1.86414323    -0.91287378     3.70605779     1.03295728    -1.00939568    -0.40856156
O       3.78335698     4.83360502     0.67417499     0.17096531    -1.60015416     0.46950469
O       3.64938899     0.98214202     0.85129400     0.60904057     0.58952769    -0.13987681
O       0.06263898     4.71927998     0.80000001    -0.60768766     0.44559780    -0.44501981
O       0.01738702     0.96697400     0.68976699    -0.01112800    -0.66141628     1.47862578
O       5.85113820     4.70406020     4.05770083    -0.06345074    -0.34813058     0.14733044
O       5.68479821     0.85302224     3.94274279    -0.19879700     1.77313033     0.65524794
O       1.76370020     4.79467424     4.08576379     0.05011725    -0.44364350    -0.45563667
O       1.87594520     0.92957324     4.06890579     0.36947255     1.05429513     0.00338332
O       3.68509623     2.85911124     3.17216281     0.71552002     0.05256725    -0.24861317
O       3.84548424    -1.13006580     3.23838379    -0.80672428     0.27020350     0.22866552
O      -0.04637175     2.69493923     3.25569583     1.34018931    -0.03447259    -0.57687812
O       0.07276420    -0.88645079     3.15358584    -1.10510014    -0.15292953     0.02861510
O       5.64472103     6.68743098     1.64724602     1.55514441    -0.13404117    -0.64705872
O       5.75793400     3.00878400     1.67549699    -1.55427897    -0.25683350    -0.23427875
O       1.93484401     6.61026498     1.66613500    -0.79685381     0.20183630    -0.10999003
O       1.83796298     3.02181001     1.45899502     0.61409279    -0.46259717     1.26031770
