# total energy = -19073.78823282 eV

CRYSTAL
PRIMVEC
        7.60600008     0.00000000     0.00000000
        0.00000000     7.60600008     0.00000000
       -1.89786986    -1.89786986     4.85670466
PRIMCOORD
22 1
Ti      3.81432100     6.60601299     1.02564701     0.36149672     0.01772339     1.49922109
Ti      3.64839800     2.75471700     1.29839697     0.42907434    -0.24072451     1.05973327
Ti      0.09804802     7.06750598     1.11551898    -0.66801296    -1.56858331    -0.41084855
Ti     -0.11916701     2.96656602     1.44836898    -0.23289755     0.76595068    -0.70829136
Ti      5.51668722     2.94513524     3.71341779     0.34304905     1.43606835     1.73233025
Ti      5.87599821    -0.76013777     3.53859679     0.12815514    -1.53069989    -0.21033251
Ti      1.81843724     2.68133922     3.72241884    -0.82762479     1.14603958     0.42478497
Ti      1.97106524    -0.92144978     3.51366979    -1.50376269    -1.61894173     0.42691821
O       3.54875397     4.61965299     0.78984901     0.67174157    -0.07531432     0.19033395
O       3.73196202     0.87665699     1.14363401     0.60201117     0.83068080    -0.88916751
O       0.27025098     4.65618300     0.74181099    -1.48409940    -0.35978668     0.36860351
O       7.10657598     1.30245502     0.46858799     0.79648023     0.39122666     1.98587685
O       5.53916424     4.99258521     3.97957083     0.14948322    -0.39275261     1.49656874
O       0.06036325    -0.96955480     3.37870080     0.68518151     1.28017331    -1.30768926
O       1.67574422     4.67963021     4.14975079     1.02993546     1.21596461    -2.82818187
O       1.92264621     0.80224721     4.20027981     0.50950927     0.07126766    -1.05326231
O       3.60318123     3.02730922     3.33884682     0.49754721    -0.73659639     0.45039908
O      -0.19784477     2.97130121     3.35814883     1.85880672    -0.84026022    -0.03248461
O       5.61334198     6.62253200     1.72089902     0.66364928     0.16390480    -0.85646718
O       5.58745399     3.03719700     1.91924598    -0.79390604    -0.36565626    -3.04877721
O       2.01548401     6.55226398     1.46726601    -2.30940454     0.98608553     1.76072706
O       1.80622499     2.67529099     1.73531799    -0.90641267    -0.57576971    -0.04999486
