# total energy = -19073.27927727 eV

CRYSTAL
PRIMVEC
        5.93400000     0.00000000     0.00000000
        0.00000000     9.29699974     0.00000000
        0.00000000     0.00000000     4.64899994
PRIMCOORD
22 1
Ti      4.43634901     6.73167099     2.44417103     0.92110936     1.33258758    -0.84901740
Ti      4.42281699     2.41477502     2.13520703    -0.08604277    -0.64550731     0.56567093
Ti      1.56056699     7.16967301     2.47233903     0.13806623     0.87548692     0.63918677
Ti      1.54791701     2.36160599     2.19992498     0.01200294    -0.16257991     0.75533768
Ti      2.99979698     4.58027501     4.51398698    -0.71516187     0.45674790     1.44851686
Ti      2.96250300     0.11625098     0.07520598     0.11867111    -0.80896577    -1.24087295
Ti      5.78102100     4.63996102     4.41316702     0.66294377    -0.17282936     0.54815965
Ti      5.90281702     9.06513698     0.21951500    -0.91085528    -1.42260348    -0.55258067
O       4.51445001     5.42231899     0.90957499    -0.48448703     0.64560476     1.57552015
O       4.43854499     0.78078299     0.93525200     1.68462701     1.36306031     0.64751972
O       1.40307199     0.67597599     1.12823500     0.03828811     1.63422643    -0.12900849
O       4.46821702     8.37678400     3.72952600     0.01359266     1.23249270     1.10635613
O       4.27576700     4.10472098     3.35250801     1.88381970    -1.98842739    -1.26864191
O       1.59253602     8.55124300     3.69177201    -1.08539006     0.30323422     0.53672673
O       1.55822300     3.80150702     3.70018101    -1.14015895    -0.31620441    -0.97415073
O       3.06182401     6.22119402     3.51173300    -2.37091666    -0.08335082    -0.05281254
O       3.01591799     1.50144101     3.15555602    -0.20582665    -0.23041927     1.40103551
O       0.11407903     6.41862698     3.69927601     0.19300147    -2.20826862    -0.93112407
O       3.00721202     7.91389599     1.52932098     0.07026185    -1.36312767    -0.38150249
O       2.96340202     2.92224198     1.13785100    -0.55755601     2.07257140    -1.10721513
O       5.89116803     7.83793101     1.63651901     0.47960091    -0.38880776    -1.26974182
O       5.84001802     3.20168101     1.27956202     1.34040991    -0.12492018    -0.46736168
