# total energy = -19517.82492148 eV

CRYSTAL
PRIMVEC
        5.93400000     0.00000000     0.00000000
        0.00000000     9.29699974     0.00000000
        0.00000000     0.00000000     4.64899994
PRIMCOORD
23 1
Ti      4.53633901     7.09189502     2.18570302    -0.21256578     0.76256274    -0.07411696
Ti      4.45863298     2.22373801     2.37284598     1.10978084    -0.30431948     0.54414565
Ti      1.41021800     7.01415301     2.33401802    -0.02635536    -0.20067802    -0.32585608
Ti      1.49133198     2.40976800     2.32795201    -1.12402656    -1.22672082     0.22873982
Ti      2.94090299     4.43834099     0.09597799     0.18331690     0.76651119    -0.10360958
Ti      3.01889599     0.02645701     0.02048599    -0.96705294    -0.36421670    -0.58570832
Ti      5.87733099     4.74781898     0.04543701     0.69657998    -0.46164689    -0.53048100
Ti      0.05667298     9.28713599     4.60987099     0.09282534     0.99166432    -0.31103829
O       4.45503701     5.59756302     0.82451203    -0.86031278     0.83681031     0.68945674
O       4.35035802     0.86226099     0.88020200     0.92544707     0.75496410     0.95195361
O       1.54013599     5.65294502     0.90692699     0.32606871    -0.64606756    -0.47821791
O       1.35051199     0.92378298     0.94176998     1.15612653    -0.09201287    -0.49432279
O       4.43946200     8.46451498     3.58320098    -0.40926167    -0.77752168     0.90193021
O       4.46263398     3.78921497     3.79388798    -0.44684350    -0.75663866    -0.92332591
O       1.38062900     8.37170999     3.70742899     1.05421774    -0.74905390     0.25757655
O       1.49385002     3.59577100     3.89973899    -0.15364353     0.97157165    -1.02725637
O       2.91046302     1.44862098     3.33659999     0.47657703     0.16445965    -0.82851979
O       5.85934002     5.89453100     3.08771502     0.50110254     0.87750935     0.39382784
O       0.04653997     1.30856998     3.16501400    -0.75669754     0.96580826     0.08282041
O       2.99284798     7.92083298     1.44320998    -0.26996259    -0.99473576     0.19859002
O       3.02670400     3.16164399     1.33141001    -0.10277089    -0.52889694     1.64103728
O       0.10618899     7.98731002     1.45174402    -0.80356440    -0.77888642    -0.22120314
O       5.91485702     3.17850400     1.44696502    -0.38898517     0.78953388     0.01357800
