# total energy = -19518.86758299 eV

CRYSTAL
PRIMVEC
        7.60600008     0.00000000     0.00000000
        0.00000000     7.60600008     0.00000000
       -1.89786986    -1.89786986     4.85670466
PRIMCOORD
23 1
Ti      3.78901701     6.62372402     1.17775700     0.63550083     0.64247855    -0.14082709
Ti      3.86347003     2.80713502     1.18046802    -0.27229124    -0.93570706     1.80412370
Ti      0.03801398     6.77715600     1.21048899    -0.84027642     0.96261187     0.19550470
Ti     -0.04314499     2.92023502     1.07511799     0.79848389    -1.28647097     1.18659952
Ti      5.58812621     2.92451125     3.79104079    -0.57831562     0.03413681    -1.76748033
Ti      5.71792121    -0.98318080     3.56083980    -0.81369712     0.71241258     0.16540196
Ti      2.00852025     2.73971223     3.75535684     0.87175933     0.84303933    -1.65717945
Ti      1.88356224    -0.99704080     3.58402480     0.43833417    -0.32442912     0.77433403
O       3.99706299     4.63437999     0.84356003    -0.79272025     1.10885524     0.38457136
O       3.97925898     0.95168898     0.70033101    -0.31225160    -1.02972823    -0.02332429
O      -0.00566299     4.90133103     0.80559600     0.58167143    -1.05467359     0.74467248
O      -0.16762801     0.99137198     0.78817797     0.43170818    -0.18531670    -0.39897545
O       5.52636625     4.82852523     3.98076079     0.91335491    -0.60047597     0.47935099
O       5.65884323     0.99172923     4.09496983     0.43930039     0.08609599    -0.64561530
O       1.75090422     4.61075720     4.00661782    -0.30048288     1.11282143     0.27578640
O       1.92165522     0.92850821     4.08432681    -0.66249665    -1.02208408    -0.07176877
O       3.82450623     2.66147322     3.31234584    -0.46896990     0.57353825    -0.64325580
O       3.73742625    -1.07622878     3.10295082     0.15006686     0.28400493     0.59565129
O      -0.02083276    -0.84998376     3.24367382     0.16702587    -0.32934635    -0.36674486
O       5.67541198     6.63753100     1.61468902     0.40042504     0.14801229     0.10557031
O       5.80489700     2.78370798     1.78944399     0.22688065     0.57191871    -0.20987743
O       1.90951499     6.95406699     1.60695398    -0.58207920    -0.78733739    -0.35147507
O       1.82772499     2.71791802     1.75434101    -0.43093093     0.47564321    -0.43504239
