# total energy = -19072.51153235 eV

CRYSTAL
PRIMVEC
        5.17600016     0.00000000     0.00000000
        0.00000000     5.50899976     0.00000000
        0.00000000     0.00000000     9.26300011
PRIMCOORD
22 1
Ti      1.91597900     3.67052898     3.48983803     2.04236298     0.40087370    -1.44489135
Ti      3.78119598     2.23518200     6.02907400     0.52964256     0.02204722    -0.45447556
Ti      4.29505302     2.47016098     1.67864099     0.17848502    -0.83160948     0.34691214
Ti      1.34938802     2.45696500     7.86726399    -0.61712464    -0.27842152     0.05306116
Ti      1.51783202     0.68543102     1.17797698     1.17466188     0.94845974     0.35187334
Ti      3.07330002     5.42785398     7.89764501     0.67601552    -0.20573538    -0.82582810
Ti      0.64567700     5.30327898     6.40012203    -2.28937152     0.56450622    -0.73626163
Ti      4.50460102     5.05468601     3.49594298    -2.17737089    -0.26747145     1.56883399
O       3.66693899     3.19927701     4.40807798    -1.09136428     0.51378399    -0.24104821
O       0.33233898     2.14424802     0.35572798     0.25795348     0.23781016    -1.31335752
O       0.28818803     3.44670500     6.63787300    -1.53927787    -1.20921700    -0.87429496
O       2.63674000     1.42324798     9.00714402     0.05186997    -0.16240508     1.29799929
O       1.37384902     4.89981901     8.16696099    -1.91768243    -0.26323144     2.54507477
O       4.25396098     0.51977001     5.07400199    -0.31289720     0.34487814     0.72033081
O       1.03839002     4.88545698     4.56427898     1.32969714    -0.92654802    -0.43300787
O       0.22969801     3.73148401     2.47569602     0.53481100    -0.21862741    -0.70719119
O       4.55773401     1.10892199     7.44630100     1.80480633    -0.79570967    -0.53025243
O       2.53882602     2.12186599     2.06448302    -1.15748562     0.64049212     1.14919895
O       2.84881699     3.38806200     7.18831900     1.20783761     0.80169057     0.07118513
O       5.08120001     0.95683200     2.51325199     0.82859795     1.03560680    -1.50217195
O       2.06697200     1.06072098     6.49848798     0.58114512     0.88072066     0.05912794
O       2.72981302     5.04606201     2.16895298    -0.09531237    -1.23189337     0.89918273
