# total energy = -19961.42376653 eV

CRYSTAL
PRIMVEC
        5.93400000     0.00000000     0.00000000
        0.00000000     9.29699974     0.00000000
        0.00000000     0.00000000     4.64899994
PRIMCOORD
24 1
Ti      4.45886799     6.93075600     2.31688199    -0.50171780     0.52982537     0.15201267
Ti      4.43937400     2.32243899     2.33064499     0.12031893    -0.03860513     0.53403169
Ti      1.47942200     6.98796201     2.33846401     0.66050045     0.39044221     0.02258509
Ti      1.46614600     2.35636602     2.31861198    -0.17130033    -0.46535262     0.16275680
Ti      2.96629598     4.65963302     0.01853300     0.12914836    -0.08811405    -0.12486310
Ti      2.98923502     0.00794300     4.64143700    -0.13592270    -0.49904077    -0.22722801
Ti      0.01226702     4.65224798     0.00249698    -0.17014333    -0.08882908    -0.08938135
Ti      5.93072000     9.27958500     0.04180400     0.10883535    -0.12688013    -0.50817564
O       4.39316502     5.57465701     0.86739703     0.44836508    -0.40281257     0.00585698
O       4.42233401     0.89177098     0.83686800     0.40419402     0.34884818     0.46763293
O       1.49804200     5.57235000     0.91369501    -0.15427859    -0.02301421    -0.10182009
O       1.46927402     0.92139798     0.94411900     0.06061712    -0.35133829    -0.56794379
O       4.46180598     8.35681402     3.66146201    -0.00273565     0.68819278     0.89570557
O       4.46603501     3.70655601     3.68368200    -0.19793105     0.42879486     0.65876341
O       1.46768998     8.36731099     3.72839102    -0.16783808     0.06629258    -0.02110259
O       1.45083399     3.73443597     3.79963098     0.34815886    -0.13481044    -0.50383562
O       2.99240998     6.12936399     3.23367300    -0.83830438    -0.66886991     0.06750280
O       2.99055998     1.39744102     3.25563100    -0.08290988     0.54939353    -0.66540380
O       5.87696999     5.98845001     3.24870402     0.76413857     0.72823053    -0.66617693
O       5.92382001     1.40797900     3.19257398     0.25287220     0.10937348     0.01162782
O       3.00076098     7.87850001     1.38078802    -0.78136368    -0.16567886     0.20878342
O       3.01162700     3.25396002     1.38536202    -0.34178073    -0.29571143     0.31090794
O       5.88279602     7.89243801     1.39764898     0.73860442    -0.32621732     0.13098079
O       0.06585600     3.27797202     1.45080902    -0.48952717    -0.16411846    -0.15321749
