# total energy = -4990.44928914 eV

CRYSTAL
PRIMVEC
        2.96588026     0.00000000     0.00000000
        0.00000000     4.64713460     0.00000000
        0.00000000    -0.00004022     4.64713459
PRIMCOORD
6 1
Ti      1.48294008     2.32354719     2.32356730     0.00000000     0.00000000     0.00000000
Ti      0.00000000     0.00000000     0.00000000     0.00000000     0.00000000     0.00000000
O       1.48294008     0.90569453     0.90570237    -0.00000000    -0.00170978    -0.00170978
O       1.48294008     3.74139995     3.74143233     0.00000000     0.00170978     0.00170978
O       0.00000000     1.41783138     3.22927527     0.00000000     0.00197872    -0.00197872
O       0.00000000     3.22926300     1.41785932     0.00000000    -0.00197872     0.00197872
