# total energy = -19515.86847108 eV

CRYSTAL
PRIMVEC
        5.17600016     0.00000000     0.00000000
        0.00000000     5.50899976     0.00000000
        0.00000000     0.00000000     9.26300011
PRIMCOORD
23 1
Ti      1.89325602     3.19005499     3.49461300    -0.65419019     0.00095208     0.84594956
Ti      3.35842199     2.30533698     5.89540801     2.43550486     0.21080251    -2.93698586
Ti      4.29173402     2.02095898     1.48353101     0.10078960     1.02278162    -1.01424221
Ti      0.84397702     3.46226699     7.80156902    -3.39344117    -0.68503341     2.34207376
Ti      2.03010200     0.04151602     1.38286499    -0.47874421     1.87704896    -0.66872747
Ti      3.18181601     5.29149701     7.89864801     0.59521112    -0.87846837     2.69492206
Ti      0.88637798     0.60333700     5.95298402    -2.46520162    -0.18436256    -2.47409353
Ti      4.57426498     4.89601899     3.18910501     0.04935234     0.32056783     2.36439249
O       1.73717599     1.85262600     4.81098999     0.30470746     0.00696975    -0.02030864
O       3.47851501     3.52063598     4.46365000     0.51361816     1.29412283     0.03414478
O       4.89354598     2.66653501     9.19770900     0.55243566     0.38001870    -0.24850030
O       3.50421101     0.60319502     0.28886802    -0.43110088    -0.04887463     0.24930171
O       1.43502699     4.77731802     9.14128299     0.79795322    -0.13325236    -0.43259855
O       4.39550700     0.84165298     4.90657099    -1.25119774    -0.03232186    -0.13486212
O       0.86591300     4.75197599     4.31123701     1.87633805    -0.59208208     1.11985237
O       0.17515502     3.39969702     2.38763002     0.78886077    -0.56716988     0.40161058
O       0.02562001     2.21131801     6.62105602    -0.35462725     0.12164408     0.85008878
O       2.44157203     1.91865103     2.29194001     1.60817472    -2.01504320    -1.62289454
O       2.47933702     3.74514499     7.13084500     1.87895595    -1.47343292    -1.82368646
O       0.26283700     0.63482998     1.97910302    -0.47809681    -0.26876368     0.68500616
O       4.88427998     4.79668300     7.31981198     0.22874368     1.31887485    -1.38049882
O       2.50868001     1.17311198     7.09280901    -1.81745102     0.19191801     0.27040996
O       3.02499698     4.27453798     2.12478102    -0.40659466     0.13310375     0.89964656
