# total energy = -19961.75257570 eV

CRYSTAL
PRIMVEC
        7.60600008     0.00000000     0.00000000
        0.00000000     7.60600008     0.00000000
       -1.89786986    -1.89786986     4.85670466
PRIMCOORD
24 1
Ti      3.69410103     6.73026100     1.27617100     1.13218827    -0.81205598    -0.32562057
Ti      3.81895400     2.90301998     1.23521803     0.26704207     0.75672196    -1.07131892
Ti      0.08078801     6.55729899     1.17146100    -1.56515732     0.51391923     0.33020459
Ti      0.03003298     2.76425002     1.12259799    -0.32047219    -0.32591650     1.33311234
Ti      5.71028625     2.78357621     3.62207582     0.70298897     0.28430344    -0.52745944
Ti      5.69132323    -1.04091578     3.58258682     0.44592921    -0.07006464    -0.33258286
Ti      1.94498924     2.96700725     3.59864481    -0.89537801    -0.61039529     1.33820750
Ti      1.85521924    -0.91185278     3.67808780    -0.36905063     0.57958909     0.74070681
O       3.65944500     4.80399501     0.77544301     0.58612843     0.05786810     0.02575321
O       3.78292703     1.00391301     0.89995900    -0.05841394    -0.99894697    -0.23270498
O       0.10455802     4.68157901     0.77404402    -0.06295940    -0.15362039    -0.33631405
O       0.05733202     0.85472598     0.81562698     0.01669084     0.94453058    -0.47090877
O       5.77395521     4.70242822     4.03846582    -0.08379357     0.11696081     0.05522475
O       5.60231922     0.87481720     4.04553081     0.01733130     0.41043306    -0.19274436
O       1.75496920     4.80569520     4.17009882     0.21974096     0.14617395    -0.72164053
O       1.90247424     0.94491223     4.12675984     0.24231988     0.71899153    -0.55491549
O       3.80390023     3.04004620     3.22384279     0.43539746    -0.32813562     0.82518250
O       3.72500223    -0.97719379     3.25391382     1.06760599    -0.11303088    -0.17616845
O      -0.01959676     2.85499122     3.14520780     0.11327771    -0.25861245     0.03620269
O       0.00779520    -0.81127677     3.19759682    -0.24215301    -0.47607978     0.44453207
O       5.78779299     6.52013101     1.65331298    -1.32364785     0.13474642     0.08017885
O       5.67595201     2.82681200     1.60397202     1.07004597    -0.03412344     0.19561346
O       1.86375000     6.65843598     1.68223500     0.68683601    -0.05782593    -0.03192180
O       1.99268298     2.90979499     1.68145299    -2.08249637    -0.42543031    -0.43061803
