# total energy = -4987.49399029 eV

CRYSTAL
PRIMVEC
        4.11489308     0.00000000     0.00000000
        1.20729497     3.93380018     0.00000000
       -2.66113116    -1.96692754     5.31296135
PRIMCOORD
6 1
Ti      0.90534531     2.95050095     1.32824003     0.00033501    -0.00033501     0.00000000
Ti      1.75571132    -0.98362849     3.98472053    -0.00033501     0.00033501    -0.00000000
O       0.30186678     0.98344459     0.86543784    -0.00061989    -0.00109735    -1.34519653
O       2.35918966     0.98342777     4.44752272     0.00061989     0.00109735     1.34519653
O      -0.30183509    -0.98342117     3.52191835    -0.00109735    -0.00061989    -1.34519653
O       2.96289152     2.95029342     1.79104227     0.00109735     0.00061989     1.34519653
