# total energy = -19960.61747123 eV

CRYSTAL
PRIMVEC
        5.93400000     0.00000000     0.00000000
        0.00000000     9.29699974     0.00000000
        0.00000000     0.00000000     4.64899994
PRIMCOORD
24 1
Ti      4.50874802     6.94374402     2.32077901    -1.66996915     0.21582414     0.05015813
Ti      4.41135999     2.30858401     2.25935201     0.88619762    -0.16630107     0.44237338
Ti      1.43524999     6.99487101     2.34518800     1.56241858    -0.32435455    -0.54832266
Ti      1.50124998     2.34974199     2.36915698    -0.85540043     0.01886136     0.07247865
Ti      3.00885797     4.65171600     4.61506598     0.86057323     1.35656544    -0.13308395
Ti      2.90043601     0.08633098     0.01586399     1.40903242    -1.83451878     0.29045069
Ti      0.04192698     4.56201802     4.64148600    -0.70837775     1.27243377     0.46550868
Ti      0.01149701     0.02893001     0.01062202    -1.98283164    -0.83897467    -0.90041403
O       4.53520498     5.45715902     0.93363599    -0.51230458     0.01066160    -0.29896747
O       4.42677402     0.79362702     1.03159401    -0.09620814     0.21614784    -0.62439829
O       1.41420101     5.65451297     0.87878900     0.12767563    -1.68504147    -0.30951286
O       1.40596199     0.87867099     0.93813702     1.09271411     0.64635218     0.57235914
O       4.52651298     8.43005601     3.74673501    -0.36328030     0.09322746     0.02847189
O       4.37504202     3.68814799     3.65884300     0.21521658     0.98742482     0.99825534
O       1.55029101     8.42532601     3.65333300    -0.48866456     0.66079458     0.99900662
O       1.51815598     3.85872399     3.65632502     0.01075904    -1.20853978    -0.31865185
O       3.06734301     6.11225003     3.28027098    -0.66793068    -0.45308100     0.23172924
O       2.94679300     1.48599798     3.35128900    -0.82075685     0.11980214    -0.70540144
O       5.90266303     6.00599399     3.26022003     0.38874426     0.39897057    -0.43624386
O       5.81252101     1.47338001     3.24516298     1.86551113    -0.34839721     0.75471419
O       2.96856298     7.72601500     1.28356800    -0.07900643     0.72889696     0.71621190
O       3.01169198     3.18037199     1.36150401    -1.70859253    -0.00665633    -0.01045925
O       0.00809101     7.92939798     1.52697599     0.34019204    -0.05885386    -0.79993785
O       5.87127001     3.17396101     1.41447603     1.19428892     0.19875612    -0.53632409
