# total energy = -19517.34491667 eV

CRYSTAL
PRIMVEC
        5.93400000     0.00000000     0.00000000
        0.00000000     9.29699974     0.00000000
        0.00000000     0.00000000     4.64899994
PRIMCOORD
23 1
Ti      4.57812401     7.14194698     2.27372499     0.86057580    -0.09472282     0.15085979
Ti      4.30981098     2.27159701     2.31864299     2.09679403    -1.10889586     0.01211530
Ti      1.59629000     6.97459002     2.26051498    -0.65471958     0.09383347     0.57414555
Ti      1.37327100     2.31003301     2.32287497    -1.55218687    -0.49827921     0.15039442
Ti      2.97699002     4.55035099     0.17061701     0.32105069     0.00472697    -0.01593647
Ti      2.94158499     9.23378598     4.55035199    -0.27830042     0.63625005     0.37865473
Ti      5.90046900     4.66774499     4.57817401     0.32319936    -0.07659242    -0.10706900
Ti      0.00736001     0.01933402     0.04801098     0.50054949     1.32862525     0.09783514
O       4.52302401     5.50075603     1.00753898    -0.76606767     0.96496237    -0.23210154
O       4.33954497     0.93250599     0.97164299     0.52902447    -0.51354848    -0.67344184
O       1.58749000     5.56461502     1.01997603     0.10384175    -0.56861587    -1.02928703
O       1.43211398     1.00930601     0.80421501     0.77038635    -0.72252679     0.17705189
O       4.54107599     8.44218200     3.82395001    -1.01801196    -1.60787261    -1.27057589
O       4.53684099     3.66478598     3.91743499    -1.20279130     0.59581738    -1.38653449
O       1.44871099     8.33033102     3.68542300     0.32529738     0.71566066     1.27264769
O       1.44376101     3.79519801     3.59958701     0.98695045     0.74131976     1.08869804
O       2.92526601     1.30825899     3.14708902    -0.32649886     0.35698495     0.51723133
O       0.02891599     6.15728502     3.18034098    -0.39916854    -1.08533221     1.19326742
O       5.74871298     1.45274501     3.30287499     1.39895369    -0.29327222    -0.34388158
O       3.00711000     8.05318899     1.50569999     0.28637780    -1.29067678    -0.04673702
O       2.95174297     3.21050499     1.37005202    -0.78032753     0.06550916     0.51485486
O       0.20079398     7.89192101     1.45976899    -1.39843921     0.89172550    -1.02012181
O       5.93287201     3.05339501     1.35890897    -0.12648932     1.46491999    -0.00206948
