# total energy = -19960.86555290 eV

CRYSTAL
PRIMVEC
        7.60600008     0.00000000     0.00000000
        0.00000000     7.60600008     0.00000000
       -1.89786986    -1.89786986     4.85670466
PRIMCOORD
24 1
Ti      3.85394600     6.43571100     1.25650201     0.04158427     2.49320249    -0.57468085
Ti      3.77167201     2.79572602     1.25697599     0.09470251    -1.96623490    -1.09188055
Ti      0.02176898     6.75266600     1.19820499     0.15240168    -0.72839997     0.83401552
Ti     -0.00929098     2.93972499     1.16036701     0.13842696     0.47269492     0.63430578
Ti      5.65404523     2.93996725     3.54084283    -0.04090652    -0.56507032     0.83266338
Ti      5.71677422    -0.88316079     3.66900781     0.18662411     0.62157239     0.01549039
Ti      1.82453923     2.77739923     3.57718582     0.30874307     0.36957411     0.55063254
Ti      1.94186725    -0.98442680     3.60024181    -0.32838733    -0.40757142     2.00655753
O       3.79417601     4.65338402     0.89674599     0.28307034    -0.34664834    -0.72699794
O       3.80841601     0.80286698     0.84340699     0.17226500     1.51385068    -0.28230338
O       0.07250803     4.78517699     0.69179898    -0.18925486     1.67903357     0.66970269
O      -0.09293199     1.09430199     0.76034399     0.65547548    -2.46042991     0.76820657
O       5.64929423     4.84364922     4.09748379     0.21990628    -0.60157023    -0.14696688
O       5.67002120     1.07570924     4.17019682     0.07000808    -0.40103285    -2.94472745
O       1.87684221     4.68640420     4.15539981     0.00603155    -0.49853477    -0.51595709
O       1.87168221     0.90705420     4.02292981     0.03534754     0.51127768     0.64411146
O       3.66867221     2.94536522     3.29915382     2.53715937    -0.27762551    -0.77090983
O       3.82747121    -0.85985376     3.23908082     0.50862636    -0.28554888     0.28680898
O       0.02178321     2.90621225     3.09242279    -1.32505347     0.24968043     1.16438081
O       0.05190620    -0.87372879     3.27915282    -0.37589414     0.05192319    -0.50435832
O       5.79128302     6.51848098     1.79603801     0.08287928     0.11171242    -1.78094057
O       5.68161802     2.68387202     1.57513202    -0.29263459     0.97594921     1.09983735
O       1.98722398     6.57381102     1.68393001    -1.70750161    -0.04865660    -0.63937780
O       1.94600102     2.88839099     1.56656199    -1.23361987    -0.46314738     0.47238690
