# total energy = -4987.88923283 eV

CRYSTAL
PRIMVEC
        2.77743514     0.00000000     0.00000000
        0.43409692     4.33011964     0.00000000
       -0.00000289    -0.00005647     4.35728797
PRIMCOORD
6 1
Ti      1.60576463     2.16503158     2.17864399     0.00000000     0.00000000     0.00000000
Ti      0.00000000     0.00000000     0.00000000     0.00000000     0.00000000     0.00000000
O       1.47331610     0.84386557     0.84917124    -1.60688839     1.13076465     1.16510226
O       1.73821321     3.48619759     3.50811668     1.60688839    -1.13076465    -1.16510226
O       0.13244734     1.32114312     3.02781611     1.60677475    -1.13170182     1.16605202
O       0.30164687     3.00891994     1.32947181    -1.60677475     1.13170182    -1.16605202
