# total energy = -19069.14223620 eV

CRYSTAL
PRIMVEC
        5.17600016     0.00000000     0.00000000
        0.00000000     5.50899976     0.00000000
        0.00000000     0.00000000     9.26300011
PRIMCOORD
22 1
Ti      1.80719698     3.28142702     3.16085297    -2.84789479    -0.13759649     1.84263601
Ti      3.45082999     2.57658499     5.87558899    -0.97580652    -3.04020977     3.18651177
Ti      4.29337003     2.11131298     1.43253298     4.30486493     2.84380236    -0.62216143
Ti      1.00398000     2.67527300     7.88071198     0.48422941     0.50521784    -0.10504374
Ti      1.87216402     0.58880198     1.17141502    -0.93185992    -2.62607355    -1.81102069
Ti      3.33855800     5.33933400     7.95797101    -0.05013730     1.84332790    -0.97557615
Ti      0.77617100     5.19652001     6.39208499     2.76420895     1.44015666    -2.01697204
Ti      4.40973298     5.13436899     3.63196900     1.60291141    -1.99687475     0.56131805
O       3.44379802     3.16983200     4.24162300    -0.22190120     0.91286255    -0.31481087
O       0.83342199     1.91802898     0.32234800    -0.89797431     1.13064612    -1.07158426
O       4.86281999     4.37364902     7.57684501    -0.37130806    -0.93918962     0.40477509
O       3.62311999     0.81274598     0.36965597    -0.12789649    -2.41469665    -2.49839869
O       1.63768299     5.18541502     8.45610900    -1.18889860     1.07851801     3.21097634
O       4.70563202     0.51975202     5.26150499    -2.75411479     1.24409506     0.47450806
O       1.05608798     4.55642398     4.52042802     0.07598667    -1.24430101     0.73984961
O       5.11993499     3.66090399     2.54788601     0.32797673     0.25523402    -1.41635055
O       4.60915703     2.07980402     7.39691998    -1.30016904    -2.06314470    -1.27516942
O       2.58690299     2.08421699     1.83661400    -2.11067439     2.28388067     3.55948205
O       2.48321801     3.78728999     7.05735599     0.06979699    -1.17797115    -2.17006638
O       5.01141101     1.12751400     2.66052499     1.40859147    -2.30380056     1.30678578
O       1.98170900     1.28071600     6.36672898     0.93395743     0.71079664     0.79343090
O       2.43257501     4.57432002     2.28781000     1.80611142     3.69532067    -1.80311943
