# total energy = -4988.34523474 eV

CRYSTAL
PRIMVEC
        4.43447093     0.00000000     0.00000000
       -0.00000826     3.62820328     0.00000000
       -2.21726505    -1.81414310     5.19685101
PRIMCOORD
6 1
Ti     -0.00019247     2.72128768     1.29921289    -0.00246235    -0.00218415     3.48196248
Ti      2.21739008    -0.90722773     3.89763829     0.00246235     0.00218415    -3.48196248
O       0.00004574     0.90704318     0.84652463     0.00023757     0.00078110    -0.73991646
O       2.21715176     0.90701666     4.35032661    -0.00023757    -0.00078110     0.73991646
O      -0.00002145    -0.90703493     3.44495002    -0.00214482    -0.00030442    -1.48923724
O       2.21721884     2.72109477     1.75190116     0.00214482     0.00030442     1.48923724
