# total energy = -39034.75475266 eV

CRYSTAL
PRIMVEC
        5.93200024     0.00000000     0.00000000
        0.00000000     9.29399984     0.00000000
        0.00000000     0.00000000     9.29399984
PRIMCOORD
46 1
Ti      4.46242797     7.05710400     6.93265701    -0.07611368    -0.23277980    -0.71752960
Ti      4.46948402     6.99362998     2.38138298     0.65282930     0.07240949    -0.29929529
Ti      4.47186903     2.32919801     7.14136500    -0.75615015    -0.07615096    -1.02419238
Ti      4.24556902     2.56354198     2.02871100     0.67509892    -0.60058884     1.45665364
Ti      1.51671497     6.87787902     7.01205799    -0.92269393     1.16739980    -1.16067096
Ti      1.51462499     6.92911999     2.43752398    -0.14812825     0.39164858    -0.80444063
Ti      1.50086199     2.44141602     6.89761299     0.30468329    -0.38139193    -0.72332384
Ti      1.29811101     1.95389799     2.54682998     0.42622041     1.45075141    -0.06421358
Ti      3.00924602     4.66260901     4.66391100    -0.02175308    -0.05268089     0.26246808
Ti      2.97872800     4.92015201     9.02488400     0.17183949    -1.57768502     2.91401536
Ti      2.96074603     0.03164898     4.74790899    -0.09425822    -0.04524346    -0.40898116
Ti      2.99326302     9.22467899     0.06409300    -0.58368100    -0.50860836    -0.93036097
Ti      0.03321000     4.58869602     4.49501699     0.46717527    -0.48378846     0.48751168
Ti      0.05736303     4.67387900     9.26914100    -0.08859151     0.51515696     1.10089896
Ti      5.88347199     9.07233701     4.85993899     0.15886878     0.61722877    -1.12024703
Ti      0.01142298     0.03927702     0.04044100     0.24983676    -1.07873836    -0.20667872
O       4.41462798     5.62737401     5.61644301     0.28399928    -0.80545467    -1.02848458
O       4.51081499     5.62135700     0.91185199    -0.65140954    -0.70877010    -0.59201806
O       4.44314200     0.66581097     5.71411802     0.47262653     1.55416302    -0.46140186
O       4.40306699     0.90427999     0.90417601     0.38176577     1.31859589     0.27084859
O       1.40193003     5.57069601     5.49326102     0.35086495    -0.24741452    -0.01233719
O       1.53042897     5.70392897     0.67517302     0.45141106    -0.32805386     1.10647466
O       1.48892798     0.84301899     5.68232299    -0.79941720    -0.12522820    -1.30606561
O       1.50060100     0.89243902     0.88156400    -0.20498925     0.60422901     0.73789428
O       4.43121800     8.37299298     8.41212002     0.37313714    -0.06018826    -0.18841000
O       4.38366698     8.15217398     3.93191000     1.26776336     1.09558320    -0.58814315
O       4.48749600     3.85657199     8.41591602    -0.34629919    -1.66415794    -0.52225115
O       4.41330699     3.87419301     3.51271499    -0.87382521    -0.57289805     0.71977417
O       1.55704199     8.45505202     8.19262900    -0.41164123    -0.19497042     1.64186261
O       1.38141298     8.36280700     3.60169599    -0.19854709     1.23349543     1.77804422
O       1.58017201     3.84129798     8.19672901    -0.21502452    -0.04330948     1.15523076
O       1.51804998     3.58732502     3.68944601    -0.28565275     0.09179870     0.14587288
O       3.04147699     6.12122498     7.79971103     0.13493232     0.78023600    -0.78679000
O       2.92770600     6.07656099     3.36540797     0.14149994     0.37433913    -1.37976143
O       2.92169999     1.46686198     7.81769802     0.97631174     0.41244984     0.53537047
O       2.92020200     1.32978301     3.29067698     0.54044917     0.79981701    -0.99133856
O       0.06579398     5.99973398     7.86692299    -0.81910492     0.59191265    -0.16253595
O       0.10601399     5.86414601     3.03109300    -0.27597512     0.78851675     0.42749697
O       0.00142899     1.43052301     7.88311100     0.06238270     0.74718111     0.12704314
O       2.91436697     7.88856602     5.95572601    -0.12562209    -1.31874501     1.37761764
O       3.10543499     7.91688801     1.50339299    -0.80779001    -0.05647045    -0.57774843
O       3.07945001     3.28458800     5.99531302    -0.37822613    -0.85993071     0.61492017
O       0.00557001     7.84406100     6.12878502     1.07682983    -0.36756556     0.17167416
O       0.03425999     7.99951200     1.54691200    -0.65099328    -0.29873402    -0.93947347
O       0.01601401     3.25083099     5.88254598    -0.35177898    -1.08935444     1.37159149
O       5.90672801     3.24965098     1.60314401     0.46714134    -0.82801097    -1.40657007
