# total energy = -19959.55067130 eV

CRYSTAL
PRIMVEC
        7.60600008     0.00000000     0.00000000
        0.00000000     7.60600008     0.00000000
       -1.89786986    -1.89786986     4.85670466
PRIMCOORD
24 1
Ti      3.80541701     6.64270201     1.16946701    -1.38024942     1.73928766    -0.13445949
Ti      3.94486500     2.94724502     1.16695702     0.64442179    -2.02071428    -0.04889443
Ti     -0.16997099     6.73990399     1.26233100     1.54512456    -0.06290001     0.96664336
Ti      0.04015302     2.91238700     1.32401598    -0.75479492    -1.05218939     0.09033497
Ti      5.69837521     2.83399024     3.80965783     0.34787579    -2.77602497    -1.63381120
Ti      5.53942920    -1.07956075     3.62185484     0.38890418     2.45814780     0.71145382
Ti      2.05547123     2.84743325     3.61688084    -0.24985810    -0.25414259    -0.91705653
Ti      1.86644721    -0.94006476     3.57728181    -0.68786677    -0.19327941     0.50955915
O       3.81630800     4.79598702     0.80042901     0.10494116    -0.52712571    -0.95165331
O       4.00577902     0.93375300     0.70826501    -0.90947563    -0.10786476     0.42477751
O      -0.25685401     4.79581001     0.98049501     1.44408634    -0.49616319    -1.90695116
O       7.24598598     0.98603100     0.81311000     1.14812654     0.25777299    -0.98707078
O       5.61929824     4.64356122     4.06211782     0.28061545     1.95589932     0.40359881
O       5.74323324     0.89396723     3.73899981     0.04674524     0.26271285     2.44678660
O       2.03333421     4.75107421     3.95379280    -0.36977054    -1.62695329     0.64691602
O       2.03614923     0.87735323     3.96362783    -0.17895373     1.98973248     1.07742992
O       3.95985421     2.55386222     3.10294580    -1.28248344     1.08209673     0.84626709
O       3.70270524    -1.00330477     3.15023180     1.91335012    -0.20751510    -0.03150065
O       0.08150922     2.59224625     3.15942584     0.02946202     1.07595514     0.65497000
O      -0.00077678    -0.89971076     3.17383279    -1.27015500    -0.53904895     0.56068222
O       5.61802901     6.78324800     1.72637601    -0.08549950    -1.13837640    -0.69501367
O       5.76760302     3.19623202     1.64346600    -0.62365601    -1.09752464     0.26396780
O       1.83074802     6.48136100     1.66374100     0.42061541     0.88485011    -1.77914440
O       2.01450101     2.85939498     1.66391902    -0.52150528     0.39336710    -0.51783168
