# total energy = -19958.35448296 eV

CRYSTAL
PRIMVEC
        5.93400000     0.00000000     0.00000000
        0.00000000     9.29699974     0.00000000
        0.00000000     0.00000000     4.64899994
PRIMCOORD
24 1
Ti      4.44018999     7.02086499     2.41600398     1.15861896     0.28296158    -0.42937979
Ti      4.45212997     2.18449798     2.34600103    -1.37581118    -1.71767367     1.70347706
Ti      1.44300799     6.92812800     2.30434398    -1.25437716     1.65252806     1.23073432
Ti      1.40655302     2.51806100     2.02287100    -0.99155556    -2.13585990     1.48623753
Ti      2.88853302     4.57316001     0.09487598     1.20247351     1.54899818    -1.14704488
Ti      3.00062800     9.23522402     0.00644099     0.15423925    -1.48681783    -0.94882586
Ti      5.83632600     4.57632697     0.11682397    -1.14801830     1.85159785    -1.84314201
Ti      0.04199402     0.14208801     4.58359999     0.83786010    -2.06119066     0.04303540
O       4.39848098     5.50916402     0.88657002    -0.56868452     0.11888811     0.45852454
O       4.51183397     0.88519098     0.77756898     0.20427911     1.73600538     1.86173546
O       1.40844399     5.58446102     1.01744598     1.01613480    -1.47219853    -1.29178493
O       1.80666299     1.04035898     0.80136401    -2.75688490     0.57129599     1.01272551
O       4.72701602     8.47179201     3.71169998    -1.45031946    -0.52792712     0.03597412
O       4.48791998     3.75152602     3.69376600    -1.01808935    -0.26808620     0.61525493
O       1.37077397     8.20101201     3.82266998     1.26736098     1.53102077     0.44987329
O       1.39500098     3.68452302     4.01594700     0.95690350    -0.50910201    -1.83462265
O       3.01194101     6.23462899     3.34006499    -0.94432952    -1.33379780     0.05078496
O       3.17338998     1.28639899     3.29765900    -0.30500185     1.14321393    -1.67414076
O       5.88517398     5.97055901     3.08603001     0.86855162    -0.10383635     1.04733309
O       0.22675901     1.46159201     3.12673099    -0.47641916     0.13852955    -0.32658576
O       3.15502001     8.01759002     1.40873699    -1.24528265    -1.06390463     0.45920254
O       2.96831501     3.09002699     1.36908601     1.57473776     1.70451784     0.34395202
O       5.85771699     7.97126902     1.51687902     1.69719328    -0.17332893    -0.60252025
O       5.68653301     3.24689598     1.46099298     2.59642023     0.57416663    -0.70079865
