# total energy = -19959.53638477 eV

CRYSTAL
PRIMVEC
        7.60600008     0.00000000     0.00000000
        0.00000000     7.60600008     0.00000000
       -1.89786986    -1.89786986     4.85670466
PRIMCOORD
24 1
Ti      3.86548900     6.64451201     1.04131298    -0.26875263    -0.67818707     2.04506444
Ti      3.79099603     2.63299798     1.20798402     0.49953570     0.42584735     1.08299868
Ti     -0.05545402     6.71184399     1.17830300    -0.17152633     1.55037552     0.59310435
Ti     -0.02176802     2.93483798     1.31098599    -0.70365566    -1.41845346    -1.15597921
Ti      5.61301923     2.94846223     3.69731879     0.04101271    -0.83649998    -0.64782671
Ti      5.69796324    -0.84001279     3.69048881    -0.64326865     0.83528771    -0.34959431
Ti      1.85016623     2.71091922     3.75077379     0.82421859     0.56865932    -0.79738243
Ti      1.98135620    -0.98332775     3.62334183     1.19876187    -0.04753843    -1.28642598
O       3.93551899     4.73691200     0.80942100    -0.59377618    -1.07173210    -0.55271102
O       4.21291598     0.84919100     0.72535199    -1.30838269     1.92621798    -0.46055134
O      -0.22413800     4.87155200     0.82337398     1.04621389    -0.53654598     0.05834607
O      -0.28027000     1.09268001     0.75335102     1.28385719    -1.28645580     0.04323954
O       5.48581322     4.93676622     4.01953080     0.81893137    -1.78716059     0.52711105
O       5.43375324     1.10184922     4.08479582     1.50781295    -0.06435448     0.57541619
O       2.16259020     4.78891325     3.98497283    -1.06384549    -1.24454937    -0.57884450
O       2.07120124     0.92825421     4.11092384    -0.90797308    -0.37530073     0.36448280
O       3.85690024     2.86936225     3.18311382    -1.72586701     0.25777530    -0.87106025
O       3.78508723    -0.81295479     3.19201183    -0.76189965    -0.13360383    -0.76928026
O      -0.00257979     2.80258124     3.30303883     0.46089741     0.83244664     0.32228739
O       0.00771022    -0.84968176     3.17558283     1.33535589    -0.03406584     0.25120767
O       5.70190799     6.72058902     1.74349399     0.45686438    -0.35421202    -0.83381344
O       5.77401501     2.66047202     1.59653300    -1.17871188     1.54274680     1.33865873
O       2.01843200     6.72045302     1.31255501    -1.37002183    -0.08830714     0.98627014
O       1.84733799     2.25416501     1.63014401     1.22421914     2.01761019     0.11528214
