# total energy = -19940.52201834 eV

CRYSTAL
PRIMVEC
        6.46969090     0.00000000     0.00000000
        0.00002441     4.13142438     0.00000000
        0.00000000     0.00000000     9.88102304
PRIMCOORD
24 1
Ti      2.34496606     2.44827824     3.66578909     0.03081648     1.46816190    -1.10973096
Ti      4.12474883     1.68314608     6.21523406    -0.03081648    -1.46816190     1.10973096
Ti      5.57970019     1.68314747     1.27468301     0.03253835    -1.46829971     1.11258771
Ti      0.89001474     2.44827701     8.60634019    -0.03253835     1.46829971    -1.11258771
Ti      2.34495406     0.38256611     1.27472264     0.03081648     1.46816190     1.10973096
Ti      4.12476082     3.74885832     8.60630061    -0.03081648    -1.46816190    -1.10973096
Ti      0.89000270     0.38256461     6.21519442    -0.03253835     1.46829971     1.11258771
Ti      5.57971219     3.74885982     3.66582867     0.03253835    -1.46829971    -1.11258771
O       2.04770649     1.45474471     5.04221045     1.96915902    -0.86282166     1.44812786
O       4.42200844     2.67667956     4.83881270    -1.96915902     0.86282166    -1.44812786
O       1.18719375     1.45476140     0.10173067    -1.96834964    -0.86343873     1.44845567
O       5.28252124     2.67666293     9.77929215     1.96834964     0.86343873    -1.44845567
O       4.42199645     0.61096732     0.10169861    -1.96915902     0.86282166     1.44812786
O       2.04771849     3.52045695     9.77932422     1.96915902    -0.86282166    -1.44812786
O       5.28250920     0.61095069     5.04224246     1.96834964     0.86343873     1.44845567
O       1.18720564     3.52047364     4.83878063    -1.96834964    -0.86343873    -1.44845567
O       0.23507359     2.51296651     2.66911083     0.14600529     0.17203335     1.59164020
O       6.23464134     1.61845776     7.21191226    -0.14600529    -0.17203335    -1.59164020
O       3.46992649     1.61841935     2.27143212     0.14723119    -0.17164305    -1.59190760
O       2.99978840     2.51300497     7.60959082    -0.14723119     0.17164305     1.59190760
O       0.23506155     0.44725427     2.27140058     0.14600529     0.17203335    -1.59164020
O       6.23465334     3.68417000     7.60962235    -0.14600529    -0.17203335     1.59164020
O       2.99977640     0.44729273     7.21194375    -0.14723119     0.17164305    -1.59190760
O       3.46993848     3.68413154     2.66907930     0.14723119    -0.17164305     1.59190760
