# total energy = -19921.39429141 eV

CRYSTAL
PRIMVEC
        6.91739297     0.00000000     0.00000000
        0.00003217     6.02361674     0.00000000
        0.00000000     0.00000000    11.36879034
PRIMCOORD
24 1
Ti      2.50724129     3.56958958     4.21774027     0.36769617    -0.84984350     0.90979316
Ti      4.41018390     2.45402690     7.15105051    -0.36769617     0.84984350    -0.90979316
Ti      5.96581792     2.45402885     1.46660970     0.36764038     0.84997128    -0.91005053
Ti      0.95160727     3.56958783     9.90218122    -0.36764038    -0.84997128     0.91005053
Ti      2.50722546     0.55778134     1.46665528     0.36769617    -0.84984350    -0.90979316
Ti      4.41019973     5.46583534     9.90213563    -0.36769617     0.84984350     0.90979316
Ti      0.95159145     0.55777913     7.15100493    -0.36764038    -0.84997128    -0.91005053
Ti      5.96583375     5.46583748     4.21778586     0.36764038     0.84997128     0.91005053
O       2.18940989     2.12101776     5.80140686     0.96606846     1.38960516    -0.82507759
O       4.72801530     3.90259872     5.56738392    -0.96606846    -1.38960516     0.82507759
O       1.26934967     2.12104211     0.11704808    -0.96558715     1.39034332    -0.82601425
O       5.64807559     3.90257444    11.25174238     0.96558715    -1.39034332     0.82601425
O       4.72799948     0.89079028     0.11701118    -0.96606846    -1.38960516    -0.82507759
O       2.18942572     5.13282620    11.25177929     0.96606846     1.38960516     0.82507759
O       5.64805970     0.89076601     5.80144377     0.96558715    -1.39034332    -0.82601425
O       1.26936536     5.13285054     5.56734702    -0.96558715     1.39034332     0.82601425
O       0.25134433     3.66390519     3.07099401    -0.80454219     0.06903929     0.02639393
O       6.66608087     2.35971129     8.29779678     0.80454219    -0.06903929    -0.02639393
O       3.71004773     2.35965531     2.61343755    -0.80536237    -0.06886651    -0.02665618
O       3.20737746     3.66396117     8.75535304     0.80536237     0.06886651     0.02665618
O       0.25132844     0.65209675     2.61340122    -0.80454219     0.06903929    -0.02639393
O       6.66609676     5.37151973     8.75538937     0.80454219    -0.06903929     0.02639393
O       3.20736157     0.65215274     8.29783304     0.80536237     0.06886651    -0.02665618
O       3.71006362     5.37146375     3.07095768    -0.80536237    -0.06886651     0.02665618
