# total energy = -78964.72151334 eV

CRYSTAL
PRIMVEC
       10.35150501     0.00002646     0.00000000
        0.00002858    11.01713167     0.00000000
        0.00000000     0.00000000     9.26345890
PRIMCOORD
94 1
Ti      7.16743645     8.69763732     3.27338052     0.04993650    -0.10594774     0.04133744
Ti      7.03484174     3.30721494     3.42526522     0.16731254    -0.00239987     0.06418221
Ti      1.82242926     8.76327732     3.47647265    -0.04909240     0.06428480    -0.06032453
Ti      1.84175547     3.40110344     3.50173387    -0.07410076     0.03795155     0.06658774
Ti      8.35938110     7.68765119     5.76167941     0.01047519     0.05379881    -0.06618331
Ti      8.52234936     2.22484911     5.82378616    -0.01964246    -0.11938768    -0.02709995
Ti      3.35123669     7.67550485     5.80790283    -0.08524881    -0.09834139     0.03932118
Ti      3.23159103     2.19164524     5.78864804    -0.08225322     0.16540196     0.02456021
Ti      9.75581217     7.68786591     1.13003948    -0.01165764     0.05256597    -0.06647590
Ti      9.59271094     2.22498374     1.19198157     0.02138104    -0.11957691    -0.02698220
Ti      4.41254978     7.67542820     1.17617662     0.08551492    -0.09984626     0.03970813
Ti      4.53215754     2.19164104     1.15697343     0.08056786     0.16636278     0.02488520
Ti      5.94135719     8.76322899     8.10808252     0.04689488     0.06458408    -0.05914054
Ti      5.92185501     3.40126435     8.13357523     0.07438076     0.03819041     0.06595088
Ti      0.59636180     8.69761276     7.90511388    -0.05112821    -0.10584079     0.04139400
Ti      0.72890216     3.30722010     8.05693516    -0.16555468    -0.00279170     0.06488824
Ti      7.04381227     6.05356858     1.17829320    -0.03253912    -0.05944238    -0.04479866
Ti      7.03525389     0.53737993     1.19575281     0.04211854     0.01413464     0.04254432
Ti      1.89985143     6.02639213     1.21666483    -0.07948414     0.10285882     0.00862914
Ti      1.89837002     0.85691348     1.31807946    -0.00962596    -0.01800004     0.15758220
Ti      8.47303616    10.48078049     8.08723610    -0.01663016     0.09872834    -0.05730914
Ti      8.53022351     4.96233661     8.05435370    -0.14283666    -0.05395359     0.05806941
Ti      3.49712640    10.44940179     7.93696503     0.00735721    -0.07250642    -0.09642103
Ti      3.28219902     4.95158813     8.07088605    -0.00880783    -0.02379788     0.05218467
Ti      5.86367879     6.02638758     5.84833862     0.07971631     0.10239962     0.00861808
Ti      5.86512212     0.85706684     5.94983369     0.00853684    -0.01812140     0.15708263
Ti      0.72007691     6.05353782     5.81006166     0.03239900    -0.05962262    -0.04531725
Ti      0.72839189     0.53738898     5.82753186    -0.04073889     0.01515409     0.04288602
Ti      9.64229454    10.48079005     3.45552380     0.01687467     0.09883299    -0.05690496
Ti      9.58495572     4.96220184     3.42274462     0.14338868    -0.05305808     0.05742998
Ti      4.26685578    10.44941453     3.30504124    -0.00411865    -0.07157080    -0.09568801
Ti      4.48137899     4.95158524     3.43912866     0.00788558    -0.02393287     0.05141334
O       6.76048201     7.48962503     4.73535438    -0.02988729    -0.03483589    -0.02543131
O       6.84418017     1.88067851     4.67534554     0.00226257     0.07082929     0.11145608
O       1.63892540     7.43298590     4.75230811    -0.12878892     0.02251953     0.00562326
O       1.66294971     1.90036955     4.72072779     0.04051160     0.00191882    -0.09687458
O       8.61388622     9.13490743     4.56004548    -0.03980866    -0.04919782    -0.00553919
O       8.70840662     3.58139802     4.52090691     0.02973816     0.01162139     0.05512910
O       3.50913908     9.12826473     4.54337667     0.01862225    -0.09915874     0.09203190
O       3.57058989     3.55381254     4.53412419    -0.06638591    -0.04033600    -0.01297173
O       6.12485491     7.43299318     0.12053922     0.12780033     0.02287177     0.00550499
O       6.10066095     1.90036954     0.08905278    -0.04117983     0.00210728    -0.09722810
O       1.00315435     7.48961351     0.10360324     0.02957361    -0.03469062    -0.02534774
O       0.91932255     1.88069366     0.04361784    -0.00208337     0.07027419     0.11134218
O       9.50116008     9.13488223     9.19183933     0.04017016    -0.04851031    -0.00617425
O       9.40673555     3.58146167     9.15261829    -0.03004772     0.01167950     0.05483368
O       4.25450788     9.12816734     9.17511990    -0.01882511    -0.09797732     0.09128319
O       4.19303078     3.55379179     9.16592634     0.06599022    -0.04002181    -0.01309875
O       8.72042604     6.34568379     0.06599309     0.06738041     0.04013751     0.03632019
O       8.68261993     0.83584019     0.09649532     0.04441531    -0.02947488     0.02544930
O       3.55653227     6.35221174     0.10285015     0.00840982    -0.03383573    -0.04469325
O       3.36388377     0.69622034     0.08835280    -0.11455040    -0.10451333    -0.10491493
O       6.83581653    10.17331002     9.18098717     0.03261111    -0.00325373     0.06297328
O       6.82492459     4.67381093     9.19976000    -0.06202146    -0.03027012    -0.06000109
O       1.64963174     4.67920229     9.16571017     0.01940978    -0.00045920     0.00520880
O       9.39476258     6.34565826     4.69765629    -0.06716418     0.04053140     0.03737845
O       9.43241619     0.83579578     4.72823333    -0.04438060    -0.02920749     0.02582366
O       4.20714856     6.35218488     4.73464922    -0.00882891    -0.03376708    -0.04499818
O       4.39960922     0.69630468     4.72004800     0.11517647    -0.10492496    -0.10442102
O       6.11408549     4.67924601     4.53397695    -0.02039991    -0.00029208     0.00508307
O       0.92780890    10.17330229     4.54928061    -0.03255095    -0.00327919     0.06301930
O       0.93881981     4.67377437     4.56797674     0.06148795    -0.02985823    -0.05970387
O       5.40391122     8.98158179     2.65995464    -0.02569999     0.11960005     0.11352479
O       5.36255192     3.35330509     2.46039579    -0.03723756     0.01645609    -0.02686650
O       0.15625441     8.83455986     2.53947866     0.02175874     0.00474806    -0.11768252
O       0.20858004     3.34802448     2.48865596    -0.00776962     0.02046265     0.01393590
O      10.11429748     7.60722768     6.75252216     0.02791576    -0.03041153    -0.00756907
O      10.17350523     2.15628446     6.76556973     0.04166166    -0.06608663    -0.05025223
O       4.96247206     7.63973244     6.81432458     0.01815482     0.05251712    -0.09129682
O       4.96683066     2.16612081     6.81387352     0.00171801     0.12198089    -0.08189866
O       8.00100554     7.60722392     2.12074149    -0.02856651    -0.02996108    -0.00656660
O       7.94157319     2.15619524     2.13389262    -0.04145905    -0.06564389    -0.05057439
O       2.80118497     7.63968219     2.18257838    -0.01805995     0.05255774    -0.09146497
O       2.79665659     2.16593438     2.18209605    -0.00115957     0.12272600    -0.08177602
O       7.60746689     8.83452644     7.17113004    -0.02218014     0.00521394    -0.11689499
O       7.55503361     3.34809534     7.12044156     0.00768066     0.02012943     0.01350910
O       2.35968401     8.98158412     7.29169210     0.02713749     0.12050431     0.11358418
O       2.40108334     3.35340123     7.09205045     0.03677656     0.01604729    -0.02677496
O       5.38667983     6.15711892     2.16486106    -0.02421954     0.06355564    -0.01381249
O       5.32976708     0.57726102     2.11313579     0.00763052     0.04918779    -0.04311613
O       0.22316756     6.09475171     2.12180150    -0.02017031    -0.01867444    -0.02257301
O       0.17096036     0.57196129     2.12206772    -0.07392541     0.05675018    -0.02675491
O      10.25358430    10.41851158     7.21169245    -0.06632112     0.03170583    -0.02410384
O      10.16705955     4.89191611     7.11254725    -0.06552356     0.06370579     0.01781647
O       5.06468239    10.38895499     7.01789910     0.13300270    -0.13894864     0.13951582
O       4.97848658     4.89638026     7.13674166     0.00828050    -0.05468147    -0.02684001
O       7.54053166     6.09480770     6.75356252     0.01921026    -0.01860220    -0.02294093
O       7.59242840     0.57198044     6.75386388     0.07505644     0.05711116    -0.02674694
O       2.37705115     6.15713210     6.79662483     0.02364644     0.06351887    -0.01402049
O       2.43372593     0.57724751     6.74492986    -0.00704663     0.04921813    -0.04303077
O       7.86143888    10.41847414     2.57997139     0.06730919     0.03212955    -0.02445557
O       7.94821201     4.89185257     2.48075374     0.06509701     0.06360629     0.01843173
O       2.69897541    10.38892104     2.38615170    -0.13150555    -0.13890339     0.14048950
O       2.78523084     4.89636270     2.50490446    -0.00912896    -0.05525663    -0.02646566
