# total energy = -4989.30365058 eV

CRYSTAL
PRIMVEC
        3.05615006     0.00000000     0.00000000
        0.94822348     4.69370668     0.00000000
       -0.00000631    -0.00006270     4.81289327
PRIMCOORD
6 1
Ti      2.00218356     2.34682199     2.40644674     0.00000000     0.00000000     0.00000000
Ti      0.00000000     0.00000000     0.00000000     0.00000000     0.00000000     0.00000000
O       1.71286854     0.91472213     0.93796207    -0.48320996     0.12649807     0.03045344
O       2.29149858     3.77892186     3.87493142     0.48320996    -0.12649807    -0.03045344
O       0.28931243     1.43207447     3.34440968     0.48308629    -0.12611343     0.02990297
O       0.65890472     3.26156940     1.46848381    -0.48308629     0.12611343    -0.02990297
