# total energy = -4987.03530997 eV

CRYSTAL
PRIMVEC
        3.97618942     0.00000000     0.00000000
        1.70305998     3.59300278     0.00000000
       -2.83966234    -1.79652521     5.21473213
PRIMCOORD
6 1
Ti      1.27719454     2.69489038     1.30368298     0.00074768    -0.00074768     0.00000000
Ti      1.56239278    -0.89841259     3.91104883    -0.00074768     0.00074768     0.00000000
O       0.42580629     0.89824598     0.84943719    -0.00039852    -0.00054842    -2.11517768
O       2.41378089     0.89823168     4.36529468     0.00039852     0.00054842     2.11517768
O      -0.42577047    -0.89822336     3.45680309    -0.00054842    -0.00039852    -2.11517768
O       3.26535759     2.69470097     1.75792877     0.00054842     0.00039852     2.11517768
