# total energy = -4961.94610344 eV

CRYSTAL
PRIMVEC
        4.39739012     0.00000000     0.00000000
       -0.00000666     2.63843407     0.00000000
       -2.19871983    -1.31926517     4.78894751
PRIMCOORD
6 1
Ti     -0.00018849     1.97891934     1.19723656    -0.01676643    -0.02278384    29.78870172
Ti      2.19885198    -0.65975053     3.59171036     0.01676643     0.02278384   -29.78870172
O       0.00004657     0.65960004     0.78008032     0.01572359     0.01846156   -18.74134508
O       2.19861682     0.65956871     4.00886665    -0.01572359    -0.01846156    18.74134508
O      -0.00001811    -0.65960882     3.17455407    -0.00152235    -0.00021880     0.18129421
O       2.19868146     1.97877753     1.61439285     0.00152235     0.00021880    -0.18129421
