# total energy = -19959.46915399 eV

CRYSTAL
PRIMVEC
        7.60600008     0.00000000     0.00000000
        0.00000000     7.60600008     0.00000000
       -1.89786986    -1.89786986     4.85670466
PRIMCOORD
24 1
Ti      3.69934099     6.53083299     1.28581298     1.46571395     0.11680243     0.39287088
Ti      3.86628599     2.85990500     1.22900199    -3.21427789     0.16709451    -1.71772406
Ti      0.02124001     6.59622099     1.16352001    -0.65521529     2.09152352     1.19538112
Ti      0.01875499     3.01053901     1.12191297     1.84308827    -1.91717541     1.51280449
Ti      5.76452321     2.90539922     3.56268679     1.29261282     0.45803834     0.45141801
Ti      5.70709123    -0.96214177     3.68052779     1.11921293    -0.21358522     0.03626594
Ti      1.90255721     2.95167725     3.63082884    -0.98274721    -1.34654636    -0.54058055
Ti      1.87301023    -1.03754577     3.69509080    -1.16152148     0.89578681     0.51532434
O       3.65992099     4.69714100     0.69154502     0.96030533    -0.26787074     1.14348878
O       3.51890102     0.77572702     0.80617900     1.10324561     2.67199733     0.48746771
O      -0.00358100     4.83453298     0.73229897    -0.69103565    -0.82596025    -0.79496380
O       0.11839500     1.02322898     0.79948602    -0.84154989    -1.31941581    -0.41042149
O      -1.49226778     4.72969720     4.02328484    -1.24956997    -0.02661067     0.13311429
O      -1.58417878     0.94744525     4.15969482    -1.48448558     0.71742109    -2.01059108
O       1.58734723     4.68606823     4.28657782     0.58159146     0.65602930    -2.69460504
O       1.67180222     0.98344020     4.04502381     1.75460758    -2.18103805     0.46708811
O       3.79233320     3.04823823     3.27633379     1.03186996    -0.80640315    -0.58610118
O       3.82687424    -1.22124378     3.35715180    -0.60882640     0.63652002     0.15390861
O       0.07116021     2.71089822     3.21826479    -2.26139714     0.69926241    -1.23581148
O      -0.03545175    -1.03310978     3.11556784     0.70052123     0.42406943     0.08685678
O       5.66774801     6.53555801     1.56886799     0.06453086     0.60560660     0.36979059
O       5.62042401     3.09498401     1.50757799     1.77116909    -0.79015557     0.95611906
O       1.90444098     6.42118698     1.68724901    -0.86276432     0.23723655     1.02595307
O       1.85828503     3.15412099     1.56541198     0.32492123    -0.68262737     1.06294766
