# total energy = -4983.63701925 eV

CRYSTAL
PRIMVEC
        3.96662844     0.00000000     0.00000000
        0.00000000     2.66361943     0.00000000
        0.00000000    -0.00008537     5.28495959
PRIMCOORD
6 1
Ti      1.98331422     1.33176698     2.64247969     0.00000000     0.00000000     0.00000000
Ti      0.00000000     0.00000000     0.00000000     0.00000000     0.00000000     0.00000000
O       1.98331422     0.51908355     1.02996077     0.00000000    -1.48593568    -0.10779277
O       1.98331422     2.14445047     4.25499862     0.00000000     1.48593568     0.10779277
O       0.00000000     0.81264958     3.67244147    -0.00000000     1.48575288    -0.10680546
O       0.00000000     1.85088439     1.61251787    -0.00000000    -1.48575288     0.10680546
