# total energy = -19516.87458592 eV

CRYSTAL
PRIMVEC
        5.93400000     0.00000000     0.00000000
        0.00000000     9.29699974     0.00000000
        0.00000000     0.00000000     4.64899994
PRIMCOORD
23 1
Ti      4.54906699     7.03591902     2.15330700     0.99309745    -0.13724142     1.06863495
Ti      4.47163799     2.33941801     2.33516501     0.24688127     0.15766448     1.11954075
Ti      1.59416001     7.13553902     2.28453502    -0.61180271    -0.36240304    -0.19155446
Ti      1.49612299     2.22686598     2.25929697    -0.35996563     0.11006023     0.17272317
Ti      2.91435200     4.52230200     0.22713600     0.17403058    -1.01294740    -1.09384848
Ti      2.97226198     9.23498499     4.36362503     0.62407382     0.08046656     1.30691922
Ti      0.00835502     4.75337402     0.13436498    -0.50772184    -0.29475060    -2.31698621
Ti      5.88518499     0.09503103     4.62236799    -0.36370736     0.34521572     0.69315167
O       4.28095002     5.59454798     1.03051702     0.57978064    -0.52108233    -0.79901483
O       4.29543800     0.76898202     0.83948499     1.09501165     0.98966991     0.76338447
O       1.38996797     5.36734002     1.25002901     0.87156907     1.14628049    -0.39590170
O       1.42544502     0.80621001     0.95694800     0.34095309     0.84082561     0.08063265
O       4.46343299     8.37478398     3.55800500     0.01335766     0.55893901     0.53777754
O       4.45337698     3.75487301     3.81628901    -0.60945272    -0.37375061     0.61385034
O       1.39527102     8.42256403     3.78799998     0.09915206    -1.83236471    -1.87542993
O       1.54752600     3.87597200     3.72434298    -0.42506213     0.21547292     1.19265318
O       2.92406499     1.44990201     3.27140202     0.19521519    -0.29963879    -0.27710692
O       5.67982998     5.95759602     3.32484701     0.59132849     0.77663851     0.45031166
O       0.08257901     1.41237699     3.25434198    -0.67617621    -0.22629419     0.50237780
O       3.00897201     7.91655400     1.28088697    -1.09987103    -1.45527835     1.35018036
O       3.02383501     3.38038602     1.66643700    -0.35615937    -1.15815976    -0.84900660
O       0.15135702     7.71135499     1.36227200    -0.75637204     1.09862019    -0.80234029
O       5.90589000     3.05280001     1.45887601    -0.05815992     1.35405733    -1.25094834
