# total energy = -39040.29141379 eV

CRYSTAL
PRIMVEC
        7.60629642    -0.00000847    -0.00005503
       -0.00000847     7.60629642    -0.00005503
       -3.80314186    -3.80314186     9.70738094
PRIMCOORD
46 1
Ti      1.90146349     4.67995175     6.08910487     0.00011570     0.26329880     0.04222627
Ti      3.82258499     6.65756509     1.21623344     0.04076460     0.03327754    -0.13638473
Ti      1.90152346     1.02985662     5.97513326     0.00055999    -0.23791918     0.04043344
Ti      3.79577187     2.85126489     1.22654205     0.04999049    -0.03260443    -0.00363631
Ti     -1.90169499     4.76050127     6.05700936     0.00027614    -0.01759175     0.02480781
Ti     -0.01973233     6.65754984     1.21626862    -0.04007940     0.03343772    -0.13624178
Ti     -1.90171372     0.93411950     6.09109295    -0.00031599     0.06415959     0.03889669
Ti      0.00703735     2.85123967     1.22657405    -0.04987222    -0.03312276    -0.00344657
Ti      3.89939640     0.94386373     8.53503667    -0.18600833    -0.01276605    -0.01336460
Ti      5.70492504     2.84156836     3.63851718     0.00002982     0.07754039     0.04953361
Ti      3.79363322    -2.85352370     8.49780470     0.03709229     0.05091069    -0.07276687
Ti      5.70482880    -0.93824675     3.63514974    -0.00006711    -0.06861326     0.11212739
Ti     -0.09614539     0.94388376     8.53496658     0.18569362    -0.01278276    -0.01285578
Ti      1.90175046     2.87215610     3.67363374     0.00020260     0.17788415     0.01860477
Ti      0.00986776    -2.85351112     8.49785570    -0.03703675     0.05112075    -0.07296588
Ti      1.90166597    -0.97745704     3.52144166    -0.00011339     0.02249973    -0.05442050
O       1.90162997     2.85927945     5.63962730     0.00001286    -0.06914650     0.04839306
O       3.83297370     4.75409616     0.79950295    -0.03040356    -0.02747353     0.06347259
O       3.79611268     0.94932337     0.77413092    -0.02575321     0.02718840    -0.02391358
O      -1.90154440     2.83377354     5.68066612     0.00001028     0.05699315     0.05853761
O      -0.02975348     4.75409904     0.79951539     0.02997290    -0.02748073     0.06385543
O      -1.90156098    -0.92856676     5.67155736    -0.00007559    -0.10625988    -0.05807507
O       0.00714233     0.94932143     0.77414546     0.02571130     0.02714058    -0.02372949
O       3.72716789     2.82831622     8.87553556    -0.13582140     0.06842068     0.01087988
O       5.70467646     4.75403035     4.07539778     0.00009565     0.00344348     0.04762996
O       3.74115578    -0.92858536     8.89344956    -0.06686619    -0.06842068     0.13712264
O       5.70467017     0.95157851     4.07011583     0.00012033     0.00246260    -0.00595622
O       0.07592803     2.82830293     8.87558255     0.13606849     0.06888399     0.01064643
O       1.90148036     4.84170784     4.11574801    -0.00006171    -0.15347203    -0.19497634
O       0.06193185    -0.92856780     8.89349657     0.06724954    -0.06863614     0.13703856
O       1.90149673     0.85627599     4.08956592    -0.00003908     0.09381008    -0.26762468
O       3.78156589     2.85123407     3.24015534     0.12117614    -0.00914825     0.01629566
O       1.90158471    -2.82192661     8.08544794     0.00012984    -0.01850424    -0.01724285
O       3.81140985    -0.95112841     3.21278108     0.05388340     0.00310307    -0.13372235
O      -1.90150038     0.95811227     8.05032701    -0.00164936     0.06293806     0.24224506
O       0.02156448     2.85123292     3.24016284    -0.12115043    -0.00922075     0.01631083
O      -1.90156630    -2.85947335     8.07036298    -0.00001414    -0.04310122     0.02813302
O      -0.00823855    -0.95112803     3.21282322    -0.05434620     0.00315449    -0.13372338
O       3.78244184     4.82047797     6.46307970     0.09454695     0.10050317     0.05754979
O       5.70470608     6.66070308     1.63798986     0.00003368     0.05668976    -0.01828544
O       3.68327407     0.88422212     6.53070007     0.13805852    -0.18110420     0.02575244
O       5.70471809     2.84630349     1.65436731     0.00005631    -0.05597602     0.14426825
O       0.02066422     4.82048189     6.46310805    -0.09433432     0.10046358     0.05766678
O       1.90156625     6.64786855     1.57498327     0.00002494    -0.05137477    -0.06473423
O       0.11987811     0.88422535     6.53074700    -0.13768982    -0.18119419     0.02561642
O       1.90156815     2.85908621     1.63168206    -0.00017792     0.03658887    -0.06997800
