# total energy = -4990.17900718 eV

CRYSTAL
PRIMVEC
        2.97051887     0.00000000     0.00000000
        0.46427478     4.63114400     0.00000000
       -0.00000309    -0.00006040     4.66020104
PRIMCOORD
6 1
Ti      1.71739533     2.31554180     2.33010052     0.00000000     0.00000000     0.00000000
Ti      0.00000000     0.00000000     0.00000000     0.00000000     0.00000000     0.00000000
O       1.57573915     0.90253002     0.90820453    -0.48103275     0.11074362     0.09443023
O       1.85905157     3.72855357     3.75199645     0.48103275    -0.11074362    -0.09443023
O       0.14165491     1.41298729     3.23830600     0.48122302    -0.11211917     0.09582094
O       0.32261698     3.21809620     1.42189499    -0.48122302     0.11211917    -0.09582094
