# total energy = -19960.45777612 eV

CRYSTAL
PRIMVEC
        5.93400000     0.00000000     0.00000000
        0.00000000     9.29699974     0.00000000
        0.00000000     0.00000000     4.64899994
PRIMCOORD
24 1
Ti      4.41080499     6.93385697     2.20343300     0.72361128    -0.60516952     0.86328292
Ti      4.48421600     2.19808799     2.27284100    -0.19627629     1.94966157     0.91864959
Ti      1.50831900     7.01760599     2.39901802    -0.96989195    -1.60944381    -0.35276320
Ti      1.46728998     2.31354399     2.29937501     0.68578057     1.09754958    -0.00568034
Ti      2.99613602     4.68451599     4.61807102    -1.05772729    -2.08651244     0.84377441
Ti      2.98760701     0.00717400     4.63878598    -0.06610489     0.95781702    -0.51501838
Ti      5.89884300     4.67215801     4.59609799     1.26657988    -1.32584203    -0.26138153
Ti      5.93257302     9.24147799     0.11082300    -0.01178080     0.95076756    -0.66911699
O       4.57061202     5.51593098     0.97015102    -0.89944524     0.90702383     0.07399535
O       4.45486598     0.92813398     0.91589803    -0.29590297    -0.79111871    -0.26977516
O       1.46752700     5.54675598     0.96961899     0.08553883     0.75637795     0.26273213
O       1.45608603     0.99393802     0.93028302    -0.07706679    -0.69784882     0.07953428
O       4.39747501     8.40673702     3.84704002     0.22733934    -0.15714794    -0.64212323
O       4.44011702     3.66732900     3.73331401     0.46444219     1.41422193     0.58203241
O       1.46307201     8.58368903     3.78326797     0.33815701    -1.83660960    -0.99514559
O       1.56356801     3.82340797     3.72653901    -0.98622617    -0.16183121    -0.15291102
O       3.07325498     5.97645499     3.25210599    -0.59331056     2.19934303    -1.11202773
O       2.95569799     1.43585801     3.18661200    -0.45374820    -0.47918387     0.50078140
O       5.92826901     6.24513702     3.30391901     0.21136481    -0.66616099     0.16102619
O       0.00018399     1.40462999     3.30906002    -0.11875210     0.41876318    -0.84245132
O       2.92776802     7.85776902     1.39653099     0.14926339     0.16096372     0.48950403
O       2.94048002     3.31439000     1.37997600    -0.18407717    -1.05911852     0.73310457
O       5.92751102     7.80806599     1.42929002     0.48729159     1.00317566    -0.25538366
O       5.77918798     3.22765800     1.35075102     1.27094150    -0.33967782     0.56536137
