# total energy = -19950.92934617 eV

CRYSTAL
PRIMVEC
        4.81946400     0.00000000     0.00000000
        0.51168389     5.10378158     0.00000000
        0.00000000     0.00000000     8.63660821
PRIMCOORD
24 1
Ti      2.05004735     3.02449626     3.20412012     1.07498069     0.19589731    -0.21600746
Ti      3.28110069     2.07928535     5.43248838    -1.07498069    -0.19589731     0.21600746
Ti      4.36493718     2.07928709     1.11414963    -1.46590987    -0.81933915     1.41025138
Ti      0.96621087     3.02449478     7.52245902     1.46590987     0.81933915    -1.41025138
Ti      1.79420550     0.47260552     1.11418428     1.07493261     0.19420989     0.20573512
Ti      3.53694254     4.63117629     7.52242438    -1.07493261    -0.19420989    -0.20573512
Ti      0.71036896     0.47260364     5.43245379     1.46590935     0.81702361     1.42182649
Ti      4.62077904     4.63117812     3.20415477    -1.46590935    -0.81702361    -1.42182649
O       1.70556344     1.79712827     4.40719517    -1.54506799    -1.16431576    -0.40635838
O       3.62558460     3.30665340     4.22941333     1.54506799     1.16431576     0.40635838
O       1.06454408     1.79714891     0.08891873     1.53428375    -1.40452553    -0.09691134
O       4.26660401     3.30663280     8.54768958    -1.53428375     1.40452553     0.09691134
O       3.36974275     0.75476246     0.08889072     1.54492247     1.16388227    -0.40656895
O       1.96140529     4.34901921     8.54771759    -1.54492247    -1.16388227     0.40656895
O       4.01076216     0.75474186     4.40722323    -1.53398371     1.40395423    -0.09670720
O       1.32038584     4.34903980     4.22938533     1.53398371    -1.40395423     0.09670720
O       0.48633740     3.10440939     2.33296340    -0.82533522    -0.42268052    -1.15150626
O       4.84481059     1.99937228     6.30364511     0.82533522     0.42268052     1.15150626
O       2.78528790     1.99932475     1.98536831    -0.00290226    -1.11680947    -0.56729535
O       2.54586013     3.10445687     6.65124009     0.00290226     1.11680947     0.56729535
O       0.23049555     0.55251845     1.98534071    -0.82537044    -0.42260570     1.15247762
O       5.10065244     4.55126317     6.65126765     0.82537044     0.42260570    -1.15247762
O       2.29001828     0.55256598     6.30367267     0.00313598     1.11682978    -0.56820501
O       3.04112976     4.55121569     2.33293584    -0.00313598    -1.11682978     0.56820501
