# total energy = -19910.22969791 eV

CRYSTAL
PRIMVEC
        7.17359270     0.00000000     0.00000000
        0.00003336     6.24671366     0.00000000
        0.00000000     0.00000000    11.78985664
PRIMCOORD
24 1
Ti      2.60010208     3.70179660     4.37395288     0.37531255    -0.90707705     0.98269373
Ti      4.57352405     2.54491679     7.41590424    -0.37531255     0.90707705    -0.98269373
Ti      6.18677414     2.54491881     1.52092857     0.37497857     0.90756504    -0.98324344
Ti      0.98685199     3.70179478    10.26892867    -0.37497857    -0.90756504     0.98324344
Ti      2.60008567     0.57843991     1.52097585     0.37531255    -0.90707705    -0.98269373
Ti      4.57354046     5.66827369    10.26888140    -0.37531255     0.90707705     0.98269373
Ti      0.98683558     0.57843762     7.41585696    -0.37497857    -0.90756504    -0.98324344
Ti      6.18679055     5.66827590     4.37400015     0.37497857     0.90756504     0.98324344
O       2.27049915     2.19957398     6.01627378     0.94354662     1.43801699    -0.88912123
O       4.90312698     4.04713941     5.77358333    -0.94354662    -1.43801699     0.88912123
O       1.31636262     2.19959922     0.12138320    -0.94336381     1.43837849    -0.88983291
O       5.85726358     4.04711424    11.66847358     0.94336381    -1.43837849     0.88983291
O       4.90311057     0.92378252     0.12134493    -0.94354662    -1.43801699    -0.88912123
O       2.27051556     5.32293087    11.66851185     0.94354662     1.43801699     0.88912123
O       5.85724710     0.92375734     6.01631205     0.94336381    -1.43837849    -0.88983291
O       1.31637889     5.32295612     5.77354506    -0.94336381     1.43837849     0.88983291
O       0.26065338     3.79960538     3.18473453    -0.82788087     0.08206733     0.00078959
O       6.91297275     2.44710801     8.60512258     0.82788087    -0.08206733    -0.00078959
O       3.84745691     2.44704995     2.71023153    -0.82805930    -0.08188658    -0.00094308
O       3.32616922     3.79966344     9.07962538     0.82805930     0.08188658     0.00094308
O       0.26063690     0.67624849     2.71019386    -0.82788087     0.08206733    -0.00078959
O       6.91298923     5.57046490     9.07966305     0.82788087    -0.08206733     0.00078959
O       3.32615274     0.67630654     8.60516019     0.82805930     0.08188658    -0.00094308
O       3.84747339     5.57040685     3.18469686    -0.82805930    -0.08188658     0.00094308
