# total energy = -19943.12227228 eV

CRYSTAL
PRIMVEC
        5.67412715     0.00000000     0.00000000
        2.32271396     5.57443844     0.00000000
        0.00000000     0.00000000    10.37314430
PRIMCOORD
24 1
Ti      3.43303637     3.30340716     3.84836255     1.05144994    -3.05477996     0.98040854
Ti      4.56380483     2.27103144     6.52478186    -1.05144994     3.05477996    -0.98040854
Ti      5.83984482     2.27103333     1.33816819    -2.53288182    -0.61659859     0.73736772
Ti      2.15699643     3.30340549     9.03497628     2.53288182     0.61659859    -0.73736772
Ti      2.27167950     0.51618792     1.33820977     1.05144994    -3.05477996    -0.98040854
Ti      5.72516173     5.05825085     9.03493470    -1.05144994     3.05477996     0.98040854
Ti      0.99563943     0.51618587     6.52474022     2.53288182     0.61659859     0.73736772
Ti      7.00120181     5.05825290     3.84840413    -2.53288182    -0.61659859    -0.73736772
O       2.61376413     1.96285460     5.29333615     1.38421535     1.94235372    -1.01221052
O       5.38307702     3.61158401     5.07980826    -1.38421535    -1.94235372     1.01221052
O       1.85907616     1.96287712     0.10679734     0.29406695    -0.82802537     1.10958621
O       6.13776512     3.61156158    10.26634673    -0.29406695     0.82802537    -1.10958621
O       4.22172013     0.82436466     0.10676366    -1.38421535    -1.94235372    -1.01221052
O       3.77512107     4.75007394    10.26638041     1.38421535     1.94235372     1.01221052
O       4.97640816     0.82434218     5.29336977    -0.29406695     0.82802537     1.10958621
O       3.02043294     4.75009650     5.07977458     0.29406695    -0.82802537    -1.10958621
O       1.61896049     3.39068962     2.80204508     0.51972350     1.71540261     1.60766512
O       6.37788066     2.18374899     7.57109933    -0.51972350    -1.71540261    -1.60766512
O       3.95311504     2.18369711     2.38456012     1.28174322     1.11363055     0.32581160
O       4.04372611     3.39074150     7.98858412    -1.28174322    -1.11363055    -0.32581160
O       0.45760358     0.60347021     2.38452695     0.51972350     1.71540261    -1.60766512
O       7.53923762     4.97096839     7.98861723    -0.51972350    -1.71540261     1.60766512
O       2.88236922     0.60352214     7.57113238    -1.28174322    -1.11363055     0.32581160
O       5.11447193     4.97091647     2.80201197     1.28174322     1.11363055    -0.32581160
