# total energy = -19916.95170378 eV

CRYSTAL
PRIMVEC
        6.41793311     0.00000000     0.00000000
        0.00003518     6.83062164     0.00000000
        0.00000000     0.00000000    11.48668904
PRIMCOORD
24 1
Ti      2.32621291     4.04782006     4.26147979     0.05525534    -0.90322502     0.64665865
Ti      4.09175537     2.78280164     7.22520958    -0.05525534     0.90322502    -0.64665865
Ti      5.53506711     2.78280399     1.48181900     0.05518978     0.90396113    -0.64789973
Ti      0.88290117     4.04781798    10.00487050    -0.05518978    -0.90396113     0.64789973
Ti      2.32619546     0.63250938     1.48186506     0.05525534    -0.90322502    -0.64665865
Ti      4.09177283     6.19811252    10.00482444    -0.05525534     0.90322502     0.64665865
Ti      0.88288372     0.63250683     7.22516351    -0.05518978    -0.90396113    -0.64789973
Ti      5.53508457     6.19811507     4.26152585     0.05518978     0.90396113     0.64789973
O       2.03132873     2.40517806     5.86156961     1.41655701     1.31181640     0.00569602
O       4.38663955     4.42544371     5.62511975    -1.41655701    -1.31181640    -0.00569602
O       1.17770011     2.40520557     0.11826191    -1.41634284     1.31184520     0.00526819
O       5.24026823     4.42541620    11.36842713     1.41634284    -1.31184520    -0.00526819
O       4.38662209     1.01013282     0.11822463    -1.41655701    -1.31181640     0.00569602
O       2.03134619     5.82048888    11.36846441     1.41655701     1.31181640    -0.00569602
O       5.24025078     1.01010531     5.86160688     1.41634284    -1.31184520     0.00526819
O       1.17771744     5.82051646     5.62508248    -1.41634284     1.31184520    -0.00526819
O       0.23319973     4.15477130     3.10284135     0.50016922    -0.28877304     0.33252347
O       6.18476856     2.67585040     8.38384802    -0.50016922     0.28877304    -0.33252347
O       3.44217142     2.67578674     2.64053985     0.49880757     0.28875633    -0.33242576
O       2.97579686     4.15483496     8.84614932    -0.49880757    -0.28875633     0.33242576
O       0.23318227     0.73946042     2.64050317     0.50016922    -0.28877304    -0.33252347
O       6.18478601     6.09116128     8.84618600    -0.50016922     0.28877304     0.33252347
O       2.97577940     0.73952408     8.38388463    -0.49880757    -0.28875633    -0.33242576
O       3.44218888     6.09109762     3.10280467     0.49880757     0.28875633     0.33242576
