# total energy = -4988.21536726 eV

CRYSTAL
PRIMVEC
        3.19032251     0.00000000     0.00000000
        0.98985280     4.89977185     0.00000000
       -0.00000659    -0.00006545     5.02419102
PRIMCOORD
6 1
Ti      2.09008430     2.44985320     2.51209562     0.00000000     0.00000000     0.00000000
Ti      0.00000000     0.00000000     0.00000000     0.00000000     0.00000000     0.00000000
O       1.78806765     0.95488066     0.97914089     0.31182042    -0.29908626    -0.45909609
O       2.39210096     3.94482575     4.04505036    -0.31182042     0.29908626     0.45909609
O       0.30201395     1.49494603     3.49123742    -0.31242489     0.29927086    -0.45929175
O       0.68783225     3.40476025     1.53295383     0.31242489    -0.29927086     0.45929175
