# total energy = -4988.12244538 eV

CRYSTAL
PRIMVEC
        3.04500367     0.00000000     0.00000000
        1.39982288     4.56109093     0.00000000
       -0.00000932    -0.00006253     4.82688357
PRIMCOORD
6 1
Ti      2.22240868     2.28051425     2.41344178     0.00000000     0.00000000     0.00000000
Ti      0.00000000     0.00000000     0.00000000     0.00000000     0.00000000     0.00000000
O       1.79530489     0.88887735     0.94068850    -1.32359874     0.69886441     0.58385069
O       2.64951252     3.67215113     3.88619502     1.32359874    -0.69886441    -0.58385069
O       0.42709996     1.39161158     3.35413135     1.32320716    -0.69871246     0.58341078
O       0.97271380     3.16941668     1.47275222    -1.32320716     0.69871246    -0.58341078
