# total energy = -19908.70435970 eV

CRYSTAL
PRIMVEC
        7.02867211     0.00000000     0.00000000
        0.00002302     3.20598532     0.00000000
        0.00000000     0.00000000    10.69708959
PRIMCOORD
24 1
Ti      2.54756911     1.89986394     3.96854395    -0.80362610     0.64531371    -0.08168809
Ti      4.48112571     1.30612142     6.72854580     0.80362610    -0.64531371     0.08168809
Ti      6.06178486     1.30612252     1.37995814    -0.80221688    -0.64563998     0.08270599
Ti      0.96690996     1.89986295     9.31713171     0.80221688     0.64563998    -0.08270599
Ti      2.54755775     0.29687134     1.38000106    -0.80447302     0.64576751     0.08136388
Ti      4.48113707     2.90911408     9.31708880     0.80447302    -0.64576751    -0.08136388
Ti      0.96689860     0.29687014     6.72850289     0.80283934     0.64595366     0.08315388
Ti      6.06179621     2.90911528     3.96858686    -0.80283934    -0.64595366    -0.08315388
O       2.22462712     1.12888192     5.45864298     5.96029396    -1.14135785     2.59816344
O       4.80406769     2.07710340     5.23844677    -5.96029396     1.14135785    -2.59816344
O       1.28976607     1.12889485     0.11013252    -5.96033484    -1.14262181     2.60031726
O       5.73892880     2.07709052    10.58695692     5.96033484     1.14262181    -2.60031726
O       4.80405639     0.47411074     0.11009782    -5.95845305     1.14265755     2.60123977
O       2.22463843     2.73187463    10.58699162     5.95845305    -1.14265755    -2.60123977
O       5.73891749     0.47409781     5.45867768     5.95781105     1.14302676     2.60065716
O       1.28977727     2.73188756     5.23841207    -5.95781105    -1.14302676    -2.60065716
O       0.25538181     1.95006199     2.88955079     1.55954974    -0.73843447     0.66073750
O       6.77331301     1.25592332     7.80753896    -1.55954974     0.73843447    -0.66073750
O       3.76972680     1.25589345     2.45902809     1.56010124     0.73879854    -0.65866134
O       3.25896801     1.95009191     8.23806151    -1.56010124    -0.73879854     0.65866134
O       0.25537050     0.34706934     2.45899395     1.55912808    -0.73794956    -0.66023485
O       6.77332431     2.85891603     8.23809564    -1.55912808     0.73794956     0.66023485
O       3.25895671     0.34709920     7.80757304    -1.55928080    -0.73851469    -0.66188859
O       3.76973811     2.85888616     2.88951666     1.55928080     0.73851469     0.66188859
