# total energy = -4954.96322586 eV

CRYSTAL
PRIMVEC
        4.72160830     0.00000000     0.00000000
       -0.00000669     2.54240478     0.00000000
       -2.36083037    -1.27125960     5.09367921
PRIMCOORD
6 1
Ti     -0.00020209     1.90689119     1.27341960    -0.02037729    -0.02261775    35.85766597
Ti      2.36097299    -0.63574586     3.82025921     0.02037729     0.02261775   -35.85766597
O       0.00005012     0.63559124     0.82971866     0.01969671     0.02141653   -25.87848019
O       2.36072067     0.63555400     4.26396024    -0.01969671    -0.02141653    25.87848019
O      -0.00001928    -0.63560847     3.37655827    -0.00168613     0.00011750    -0.82214936
O       2.36078997     1.90675371     1.71712064     0.00168613    -0.00011750     0.82214936
