# total energy = -4984.85491182 eV

CRYSTAL
PRIMVEC
        4.08530102     0.00000000     0.00000000
        0.00000000     3.08198934     0.00000000
        0.00000000    -0.00008148     5.40344330
PRIMCOORD
6 1
Ti      2.04265046     1.54095377     2.70172171     0.00000000     0.00000000     0.00000000
Ti      0.00000000     0.00000000     0.00000000     0.00000000     0.00000000     0.00000000
O       2.04265046     0.60061839     1.05305154     0.00000000    -0.56703747     1.26451785
O       2.04265046     2.48128915     4.35039187     0.00000000     0.56703747    -1.26451785
O       0.00000000     0.94030298     3.75477436     0.00000000     0.56682510     1.26532981
O       0.00000000     2.14160455     1.64866905     0.00000000    -0.56682510    -1.26532981
