# total energy = -19074.31478953 eV

CRYSTAL
PRIMVEC
        5.17600016     0.00000000     0.00000000
        0.00000000     5.50899976     0.00000000
        0.00000000     0.00000000     9.26300011
PRIMCOORD
22 1
Ti      2.03773401     3.38069702     3.18359998    -0.31038883     2.55650744     1.28891403
Ti      3.47959802     2.25178297     5.88169401     0.52530485    -0.26186541    -0.66697706
Ti      4.47588501     2.37800498     1.27617201     1.72146373    -1.19270820    -2.07014428
Ti      0.65068000     3.09089802     8.07609999    -1.56060723    -0.61285300     1.27194552
Ti      1.93977102     0.59209097     1.38790402    -1.12876767    -1.10391744    -2.22266449
Ti      2.99650899     4.99224500     8.06253802     0.85508675     1.43221375     1.87501830
Ti      0.59925302     0.10010203     6.07460002     0.48906257     0.91793199    -1.12714402
Ti      4.61588001     4.94450998     3.42823698    -0.51214080     0.77521206     0.62924636
O       3.68476502     3.46406799     4.41911101    -0.89293315    -0.41211277     0.68942306
O       0.98589802     1.86823398     0.20824300    -0.81515108     1.16646751    -0.47595894
O       4.19271099     3.53549703     9.01784398    -0.61707219     0.52652561    -0.24293694
O       3.45764600     0.84132700     0.03193299     0.22920493    -0.28195782    -0.26476665
O       1.61433601     4.79531698     0.04008899    -0.64635809    -1.56058872    -1.50858711
O       4.31542899     0.81029499     4.78036502    -0.25308766    -0.30143702     0.88428395
O       1.14157498     4.94951600     4.27556199     0.39577546    -1.27382525     1.43723923
O       0.30962298     3.62030900     2.28458000     0.36360400    -1.30336312     0.28583299
O       4.95371899     1.76386499     6.94052799     0.14933744    -0.09375788     0.10152699
O       2.79648999     2.15431001     2.06796299     0.15454907    -0.47858635     0.97447109
O       1.76054699     3.80999799     6.83754798     1.52583511     1.16149731    -1.07170073
O       0.10181698     0.69365200     2.19283797     0.62270599     1.32864351    -0.46488853
O       2.20699198     1.05595801     6.62312102     0.02227219    -1.30065575     0.45534537
O       2.98273202     4.76387401     2.31540098    -0.31769514     0.31262955     0.22252186
