# total energy = -19918.20169899 eV

CRYSTAL
PRIMVEC
        6.36030067     0.00000000     0.00000000
        2.60360030     6.24855658     0.00000000
        0.00000000     0.00000000    11.62757105
PRIMCOORD
24 1
Ti      3.84819426     3.70288896     4.31374592    -0.02445300    -2.34041360     0.62441269
Ti      5.11570681     2.54566780     7.31382525     0.02445300     2.34041360    -0.62441269
Ti      6.54605861     2.54566992     1.49999318    -0.50998261    -1.10343947     0.24737235
Ti      2.41784251     3.70288709    10.12757806     0.50998261     1.10343947    -0.24737235
Ti      2.54639423     0.57861064     1.50003979    -0.02445300    -2.34041360    -0.62441269
Ti      6.41750687     5.66994630    10.12753145     0.02445300     2.34041360     0.62441269
Ti      1.11604233     0.57860835     7.31377858     0.50998261     1.10343947     0.24737235
Ti      7.84785877     5.66994860     4.31379254    -0.50998261    -1.10343947    -0.24737235
O       2.92984723     2.20022306     5.93346052     1.83116452     2.11998616    -0.84225154
O       6.03405377     4.04833371     5.69411065    -1.83116452    -2.11998616     0.84225154
O       2.08389467     2.20024831     0.11971237    -0.18062701    -0.77554270     1.56127932
O       6.88000648     4.04830856    11.50785843     0.18062701     0.77554270    -1.56127932
O       4.73225372     0.92405527     0.11967462    -1.83116452    -2.11998616    -0.84225154
O       4.23164734     5.32450149    11.50789618     1.83116452     2.11998616     0.84225154
O       5.57820636     0.92403007     5.93349821     0.18062701     0.77554270     1.56127932
O       3.38569460     5.32452677     5.69407290    -0.18062701    -0.77554270    -1.56127932
O       1.81474176     3.80072651     3.14089704     0.62711003     2.65552143     2.52355540
O       7.14915925     2.44783026     8.48667413    -0.62711003    -2.65552143    -2.52355540
O       4.43116616     2.44777211     2.67292553     0.73386536     2.02564129     1.44560997
O       4.53273485     3.80078466     8.95464546    -0.73386536    -2.02564129    -1.44560997
O       0.51294169     0.67644800     2.67288835     0.62711003     2.65552143    -2.52355540
O       8.45095937     5.57210875     8.95468257    -0.62711003    -2.65552143     2.52355540
O       3.23093480     0.67650622     8.48671118    -0.73386536    -2.02564129     1.44560997
O       5.73296621     5.57205055     3.14085993     0.73386536     2.02564129    -1.44560997
