# total energy = -19902.49347704 eV

CRYSTAL
PRIMVEC
        6.72525294     0.00000000     0.00000000
        2.10009308     6.84268352     0.00000000
        0.00000000     0.00000000    12.17753962
PRIMCOORD
24 1
Ti      3.68209391     4.05496795     4.51778034    -0.35227366    -1.81868798     0.55897732
Ti      5.14325200     2.78771572     7.65975934     0.35227366     1.81868798    -0.55897732
Ti      6.65567677     2.78771808     1.57094084     0.23497346    -0.65136300    -0.15761305
Ti      2.16966925     4.05496585    10.60659898    -0.23497346     0.65136300     0.15761305
Ti      2.63204752     0.63362631     1.57098967    -0.35227366    -1.81868798    -0.55897732
Ti      6.19329842     6.20905757    10.60655015     0.35227366     1.81868798     0.55897732
Ti      1.11962272     0.63362375     7.65971052    -0.23497346     0.65136300    -0.15761305
Ti      7.70572322     6.20906012     4.51782917     0.23497346    -0.65136300     0.15761305
O       2.86806346     2.40942524     6.21410526     1.77685432     1.97373867    -0.63365452
O       5.95728246     4.43325850     5.96343443    -1.77685432    -1.97373867     0.63365452
O       1.97356771     2.40945284     0.12537462    -0.63222165    -0.11535619     1.11626234
O       6.85177828     4.43323095    12.05216473     0.63222165     0.11535619    -1.11626234
O       4.90723604     1.01191666     0.12533511    -1.77685432    -1.97373867    -0.63365452
O       3.91810988     5.83076708    12.05220423     1.77685432     1.97373867     0.63365452
O       5.80173187     1.01188911     6.21414477     0.63222165     0.11535619     1.11626234
O       3.02361400     5.83079471     5.96339492    -0.63222165    -0.11535619    -1.11626234
O       1.52173966     4.16210806     3.28945725     0.55154786     1.95759548     1.99100106
O       7.30360626     2.68057568     8.88808243    -0.55154786    -1.95759548    -1.99100106
O       4.42966163     2.68051187     2.79935131     0.55654300     1.83656178     1.14568528
O       4.39568429     4.16217186     9.37818817    -0.55654300    -1.83656178    -1.14568528
O       0.47169318     0.74076622     2.79931242     0.55154786     1.95759548    -1.99100106
O       8.35365267     6.10191752     9.37822706    -0.55154786    -1.95759548     1.99100106
O       3.34563787     0.74083002     8.88812126    -0.55654300    -1.83656178     1.14568528
O       5.47970805     6.10185372     3.28941836     0.55654300     1.83656178    -1.14568528
