# total energy = -19075.11929323 eV

CRYSTAL
PRIMVEC
        5.17600016     0.00000000     0.00000000
        0.00000000     5.50899976     0.00000000
        0.00000000     0.00000000     9.26300011
PRIMCOORD
22 1
Ti      1.91438401     3.43695401     3.29321502     0.03901111     0.14063991    -0.27100132
Ti      3.61680998     2.27484097     5.94418598    -0.10014348    -0.29741298    -0.07842793
Ti      4.38190000     2.26162202     1.21267502    -0.49863042     0.50443083    -1.46938600
Ti      0.75872302     3.29260599     8.15609201    -1.08806915     0.60698652    -0.05230963
Ti      1.79944501     0.54240001     1.31981198     1.02479891     0.57311633    -1.68792882
Ti      3.15632898     4.98569601     8.00516901     0.86628879     0.29773411     0.75906347
Ti      0.55839302     0.16504001     6.03511101     1.06397328     1.18474061    -1.09636302
Ti      4.51429200     5.00433300     3.31151302    -0.16941596    -0.34420322     1.27466755
O       3.45836198     3.43857700     4.34327001     0.79248936    -0.30085569     2.30861650
O       0.85034799     2.04212200     0.16278900     0.37562186    -1.33279404     1.08629406
O       4.22847802     3.76262498     9.16511200    -0.03849251    -0.69099220    -0.41481500
O       3.36411699     0.86757700     0.17992000     0.66829321     1.12192313    -0.53606878
O       1.66392600     4.77856799     9.10014898    -1.64226344    -0.45877985     0.34205841
O       4.38123102     0.87564902     4.68109798    -0.09027429    -0.13559746     0.90276119
O       1.02295000     4.80195598     4.30818101    -0.53025423    -0.35228060     1.80873369
O       0.26416999     3.55066399     2.31185502    -0.75527649    -0.87380927     0.37759981
O       0.11224903     1.91016498     6.87137897    -1.08466321    -0.32938158    -0.85743160
O       2.71169801     1.95340098     2.38041998    -0.05813678    -0.24890602    -0.76118849
O       2.32783199     3.45729003     7.10748500     0.68813185    -0.85317436    -1.26380592
O       0.03782702     0.64096002     2.01573097     0.01923134     0.33910806     0.54723689
O       2.43059699     0.58364599     6.55387400     0.02636487     0.82507245    -0.07326747
O       2.75881903     4.76542503     2.39532299     0.49141513     0.62443480    -0.84503759
