# total energy = -4988.55736335 eV

CRYSTAL
PRIMVEC
        2.78967528     0.00000000     0.00000000
        0.21841388     4.36554258     0.00000000
       -0.00000121    -0.00005673     4.37237049
PRIMCOORD
6 1
Ti      1.50404388     2.18274278     2.18618515     0.00000000     0.00000000     0.00000000
Ti      0.00000000     0.00000000     0.00000000     0.00000000     0.00000000     0.00000000
O       1.43740298     0.85076878     0.85211055    -0.74103720     0.90266298     0.90950983
O       1.57068472     3.51471677     3.52025970     0.74103720    -0.90266298    -0.90950983
O       0.06664030     1.33195100     3.03829658     0.74103103    -0.90224723     0.90908611
O       0.15177227     3.03353475     1.33407366    -0.74103103     0.90224723    -0.90908611
