# total energy = -19074.21405811 eV

CRYSTAL
PRIMVEC
        5.93400000     0.00000000     0.00000000
        0.00000000     9.29699974     0.00000000
        0.00000000     0.00000000     4.64899994
PRIMCOORD
22 1
Ti      4.45546998     6.85245602     2.31281299    -0.87844369     0.04158041     0.67031487
Ti      4.35027801     2.35577001     2.31101098     1.14591719     0.61567119    -0.32651711
Ti      1.47900797     7.04379598     2.41188899     0.67484464    -1.63927711     0.17000398
Ti      1.51437300     2.45022598     2.27370398    -0.65014764     0.37733215     0.03863315
Ti      3.01725200     4.63410599     0.01973498    -0.43947266    -0.57781246    -1.43717521
Ti      3.01155800     0.01743099     4.61533898    -0.56730127    -0.32215009    -0.10298069
Ti      5.90345399     4.63027601     4.61678898    -0.08841770    -0.88602536    -0.38233475
Ti      0.00660101     9.20858402     0.16083602    -0.09099806     1.31120551    -0.90591594
O       4.32432801     5.64069600     0.78918299     1.49143399     0.08231133     1.97212325
O       4.40084301     0.92360200     0.78164401     1.03077364     0.52877456     1.08196972
O       1.53251901     0.92755601     0.96007099    -0.33538279    -0.57778674    -0.83680414
O       4.45073803     8.33579102     3.82613001     0.11896602     0.15791979    -1.32591993
O       4.44338601     3.80074998     3.59973099     0.19394044    -0.60842505     0.09283203
O       1.50475599     8.29145301     3.57649001    -0.53714170     3.31805460     2.66423491
O       1.47729402     3.72601999     3.72500699    -0.23491227     0.05077699    -0.15225590
O       2.91369000     6.06334198     3.42143599     0.10083690     0.07036598    -1.59118177
O       3.02412098     1.59762501     3.25356001    -0.67826678    -2.11665915     0.95222049
O       0.02554402     6.03489601     3.33267201    -0.45483552     0.50296119    -1.15813482
O       2.87521601     7.71062700     1.43379502     1.16009760     0.99645197    -1.25171247
O       2.98861700     3.12166301     1.34340302     0.17407326     1.56529101    -1.23790513
O       0.06797901     7.92429999     1.29313700    -0.59003548    -2.44317574     2.14870668
O       0.07325999     3.29306003     1.31683298    -0.54552839    -0.44738523     0.91779932
