# total energy = -19517.82243150 eV

CRYSTAL
PRIMVEC
        5.17600016     0.00000000     0.00000000
        0.00000000     5.50899976     0.00000000
        0.00000000     0.00000000     9.26300011
PRIMCOORD
23 1
Ti      1.95087898     3.20079601     3.39019898    -0.08582063    -0.89600536     3.26742442
Ti      3.35137800     2.34623900     5.91315201     0.07933682    -0.00972752    -2.76753133
Ti      4.32653399     2.11785901     1.53490698     0.84570196    -0.70600436    -1.04104905
Ti      0.67852298     3.42862301     7.83573498    -0.55656434     1.06153304    -0.06154041
Ti      2.02167702     0.14952401     1.40365700    -0.12306178     0.50693971    -0.93713197
Ti      3.11359702     5.16293297     7.92643802     0.64982420     0.81408330     0.70192119
Ti      0.76986601     0.58574598     5.83872100    -0.70923881    -0.78323699    -2.80539289
Ti      4.61731001     4.85611399     3.35664401     0.82716250     0.96388842     3.27718921
O       1.81796098     1.79576702     4.69827301     0.07262521     0.57046295     0.60181063
O       3.67182600     3.56147698     4.43036698    -0.05605650    -0.87039433     0.85803555
O       4.76470497     2.94233198     9.21552597    -0.11010779     0.24420475    -0.50416266
O       3.50815301     0.69552698     0.21233999    -0.39261325    -0.02188935     0.43181051
O       1.61162799     4.72419100     9.08172599     0.07779133    -0.92299527     0.02827289
O       4.33459098     0.72400100     4.76458199     0.21683278    -0.12109078    -0.20280098
O       1.08786899     4.65771999     4.53575501    -0.19906131    -0.42216398    -0.65768869
O       0.36708200     3.30345100     2.44792300    -0.36707499     0.19038975    -0.49392221
O       5.16862899     2.23602598     6.51452602    -0.62784331     0.44492700     1.18832935
O       2.78725701     1.61317102     2.40604402    -0.77160069     1.41074529    -0.14970434
O       2.41306900     3.74873101     6.82644198     0.01978979    -0.86582342     0.83741812
O       0.23566401     0.67920900     2.03400902     0.63918342    -0.65721843    -0.12413291
O       4.89755498     4.91387602     7.21052597     0.20397417     0.02146743     0.01784012
O       2.34208199     1.01394102     6.99328501     0.09887618     0.05226155     0.46426864
O       2.96898600     4.44824798     2.39558700     0.26794556    -0.00435391    -1.92926320
