# total energy = -39032.72018909 eV

CRYSTAL
PRIMVEC
        5.93200024     0.00000000     0.00000000
        0.00000000     9.29399984     0.00000000
        0.00000000     0.00000000     9.29399984
PRIMCOORD
46 1
Ti      4.38322602     6.79223300     7.07569902    -0.50989185     1.63687467    -1.23550860
Ti      4.49994998     6.99822699     2.47688302    -2.28478622     0.36013198    -1.22909935
Ti      4.49239502     2.24779801     7.04697099    -0.42691821     0.80082823    -1.16901419
Ti      4.20089598     2.70750799     2.08666200     0.30756319    -1.69502456     0.39552066
Ti      1.35410299     7.03249403     7.06140002     0.97236175    -0.04243890    -1.33123621
Ti      1.40013903     6.97468898     2.31179898     3.07824206     0.47319166    -0.62349069
Ti      1.47064099     2.22934702     6.92067602     0.06662965     1.96635703    -0.15152776
Ti      1.35758402     2.13938202     2.50907800     0.22796900    -0.59283773    -0.83976606
Ti      2.97991701     4.67287801     4.59068202    -0.56117201    -1.82105417     0.93017379
Ti      2.99326503     4.84341300     9.20155802    -0.09059337    -0.34125545     0.18683956
Ti      2.92762202     0.01843601     4.68773699     1.87435573    -1.01975440    -0.21998033
Ti      3.05430800     9.23924899     0.06302501     0.66592625     0.73836017     0.10442565
Ti      0.01772098     4.71560701     4.51466698     0.49152389    -2.28366470     1.89689068
Ti      0.06999798     4.57629099     0.00311299     0.11390943     0.14347584     0.30941335
Ti      0.04809200     9.20027302     4.81111498    -2.39275588    -1.20136948    -0.66061563
Ti      0.07674298     9.18200498     0.08875901    -1.24357184     2.26687514    -0.35798562
O       4.44164798     5.50000698     5.52977198     0.50219294    -0.07399226    -0.17141371
O       4.58724401     5.62583802     0.83807002    -0.86798238    -0.62677965     0.90755142
O       4.56885298     0.82104300     5.65863701    -0.86768773    -0.31284192    -1.21008218
O       4.44404499     1.11852502     0.61510198    -0.10211988    -0.39448733     1.31123199
O       1.52611602     5.47367602     5.57081798    -0.53741527     0.28455541    -0.38155802
O       1.55181398     5.53494299     0.87665101    -0.57996884    -0.34372782     1.08504347
O       1.45257398     0.80458501     5.51242200     1.10650577     1.42152207     0.39709109
O       1.44933701     1.14849699     0.79882402     0.16959388    -1.17519127     0.94595780
O       4.59134000     8.30316201     8.26692601    -0.85708270     1.08014732     1.29213126
O       4.55311800     8.51145898     3.59528300    -0.24001591     0.05557082     0.10118966
O       4.47282102     3.93545401     8.35763498     0.14158968    -2.01847228    -0.31657902
O       4.43835401     3.56163399     3.68695798     0.24174035     2.28984949     0.82958345
O       1.50968702     8.61181702     8.47737398     0.28456132    -2.45303413    -2.41029184
O       1.55865598     8.28787402     3.78781800    -0.22157338     0.85606428    -0.79020880
O       1.54308901     4.01770001     8.12456601    -0.13493180    -1.25389148     1.44910153
O       1.50309300     3.48259200     3.76756199    -0.43179765     2.65526689     1.15987263
O       2.87330298     6.32179702     8.11991798     0.19666967     0.21625531    -1.29284062
O       2.98962900     6.13287201     3.20768902     0.13285923    -0.97054964     0.39299943
O       2.91547100     1.51440400     7.85846399     0.66511507    -0.73071910     0.27579848
O       3.02701399     1.61546400     3.18832003     0.50675999    -1.62081324    -0.53886768
O       5.88617100     6.08242200     7.95888500     1.13245643     0.29025374    -0.54508333
O       0.03855702     6.00279098     3.08498801    -0.63057794    -1.16641095     1.66714067
O       0.03574201     1.21724801     7.70682602     0.26603111     1.39349009     0.59057053
O       2.99853399     7.83263702     5.98030402    -0.29585438     0.27238328     0.51325332
O       2.85168699     7.82811901     1.35181302     1.10415398     1.18591715    -0.26826232
O       3.05558099     3.15361902     5.92670699    -0.09138475    -0.27856936     0.63680387
O       0.00093500     7.72506798     5.87290998     0.09215017    -0.46324637     1.49261284
O       5.92940198     7.75526702     1.35489400    -0.06147253     1.32897543    -0.22056911
O       0.04284103     3.14871100     6.03643300    -0.51183638     0.39011260    -0.02539711
O       0.03173402     3.23405697     1.79053197    -0.39947013     0.77366863    -2.88181973
