# total energy = -4966.51056002 eV

CRYSTAL
PRIMVEC
        5.64767521     0.00000000     0.00000000
       -0.00000780     2.71925085     0.00000000
       -2.82386925    -1.35970140     6.08436402
PRIMCOORD
6 1
Ti     -0.00024128     2.03952831     1.52109069    -0.01151726    -0.01458099    22.77048737
Ti      2.82403938    -0.67997902     4.56327258     0.01151726     0.01458099   -22.77048737
O       0.00006010     0.67979967     0.99109304     0.01040860     0.01352272   -17.24735798
O       2.82373783     0.67974949     5.09327029    -0.01040860    -0.01352272    17.24735798
O      -0.00002307    -0.67983059     4.03327493    -0.00168202    -0.00031625    -1.94087919
O       2.82382094     2.03937976     2.05108839     0.00168202     0.00031625     1.94087919
