# total energy = -19961.07511412 eV

CRYSTAL
PRIMVEC
        7.60600008     0.00000000     0.00000000
        0.00000000     7.60600008     0.00000000
       -1.89786986    -1.89786986     4.85670466
PRIMCOORD
24 1
Ti      3.81094098     6.49709000     1.21746201    -1.29287456     1.32542783     0.51615532
Ti      3.81955800     2.86670001     1.23666400    -0.91851229    -0.78137011    -0.63463103
Ti     -0.00901898     6.73280698     1.21234402     1.26705116     0.37504979     0.37402212
Ti     -0.02994302     2.94531501     1.21424001     0.68837302    -0.93914077     0.37905994
Ti      5.70646924     2.87561622     3.67153680     0.87034934    -0.25304395    -0.49523476
Ti      5.76315322    -0.96454376     3.60648779    -0.70665460     0.46932472     0.18948086
Ti      1.93014825     2.84069322     3.64225081    -0.90139439    -0.51245319    -0.74966814
Ti      1.91146723    -1.04552978     3.70423683     0.33897360     0.65281259    -0.23335521
O       3.55953300     4.68919800     0.71838299     0.82442711     0.45062636     0.84766937
O       3.63821398     0.80425200     0.78919299     0.83462848     1.50890207     0.19022571
O       0.05816399     4.83135300     0.76045501    -0.31551921     0.07869918    -0.47605047
O      -0.03494200     1.03165200     0.81297601     0.11695516    -1.01871799    -0.81410052
O       5.85950121     4.80685622     3.83632683    -0.04263970    -0.51225958     1.55070720
O       5.73490722     0.95601024     3.97132683    -0.40260405     0.47297029     0.57468831
O       1.77158521     4.68630525     4.06691381     0.27447693    -0.17820965    -0.12144096
O       1.75731922     0.90102021     4.18438280     1.10258252    -0.34828665    -0.69120740
O       3.84378320     3.08561921     3.27283879    -0.23038044    -1.10198088     0.02204208
O       3.80946225    -1.07642580     3.23848883     0.02903985     0.06667336     0.15716517
O       0.01866921     2.59138020     3.15526280    -0.88837664     1.05977415    -0.24047048
O       0.05482223    -1.00916176     3.14675881    -0.86727018     0.42325696    -0.39818561
O       5.66454300     6.64341799     1.57150900     1.12917159     0.02764168     0.11065672
O       5.68633902     3.00382301     1.54827997    -0.07269488    -0.18477882     0.30942467
O       1.94247199     6.71311201     1.63227400    -1.16625283    -0.32008421     0.18779447
O       1.88026398     3.04885197     1.72873000     0.32914478    -0.76083342    -0.55474682
