# total energy = -19065.06542048 eV

CRYSTAL
PRIMVEC
        7.60600008     0.00000000     0.00000000
        0.00000000     7.60600008     0.00000000
       -1.89786986    -1.89786986     4.85670466
PRIMCOORD
22 1
Ti      3.83258401     6.67528901     1.65977101     0.57437026    -1.73213536    -3.18497605
Ti      3.78196101     2.72925299     1.49404201     2.24925484     3.10399578     1.76713143
Ti      0.21924300     6.49927402     1.21269598    -1.89889691    -1.78953989    -1.94656698
Ti      0.32617501     2.54172602     0.79519000    -0.84800104    -3.22893139    -1.00582673
Ti      5.85912423     2.50707221     3.70256680    -0.99557651     3.54701630     0.06167745
Ti     -0.76052180     0.69135822     2.59546883    -0.88076874    -1.10284297     0.59203195
Ti      1.44755024     2.73775825     4.10501282     2.00178556     2.08820962    -0.36501117
Ti      1.18122120    -0.53330478     3.97605783     1.12292329    -4.69338910    -0.26637847
O       3.45241202     4.70789198     1.14737100     0.86385782    -2.01441611     0.93245076
O       3.88286501     1.00057401     0.88643201    -1.04077472    -2.07371168     1.98274756
O       0.28630198     4.26948201     0.77220698     0.21916786     2.31480283    -0.38354548
O       7.15422601     0.74422901     0.79450302     0.57022256     0.64381861     0.89988593
O       5.75346224     4.32202122     4.35923979     0.41739638    -0.06701249    -1.96822494
O       5.30916423     0.53596220     3.70193883    -2.83194700     3.73291742     0.15701090
O       1.43789921     4.55576124     4.73277384    -0.16044821     2.82391435     0.63849720
O       2.11368925     0.90967321     4.31064279     0.58805779     2.81427323     0.14467706
O       2.85716524     3.31163722     3.08455382     1.12226046    -2.33015361    -0.64548263
O       0.25763725     3.00220823     2.72910482    -1.49450543    -2.72754397     1.06860075
O       6.03734202     6.47910200     1.79689702    -1.59878659    -0.21560174     0.49350647
O       5.64517400     2.84150699     1.79032898    -1.95615232    -0.75090098     0.27600880
O       1.77355899     6.30853102     2.36251998     1.31224809     1.15282369    -0.02418715
O      -0.57104575    -0.56277577     4.28713780     2.66431204     0.50440743     0.77597311
