# total energy = -79406.59905432 eV

CRYSTAL
PRIMVEC
       10.35150501     0.00002646     0.00000000
        0.00002858    11.01713167     0.00000000
        0.00000000     0.00000000     9.26345890
PRIMCOORD
95 1
Ti      7.02120164     8.82449552     3.48022988    -0.01123984     0.00094385    -0.00147170
Ti      7.15516691     3.22398497     3.41363823    -0.00706282    -0.01088066     0.00984064
Ti      1.84544331     8.81763067     3.44289641     0.00730322    -0.02092185    -0.01630337
Ti      1.77279329     3.13543812     3.51242603     0.00204094     0.01613008    -0.00661339
Ti      8.48807956     7.72947152     5.80549797     0.00459945     0.01261564     0.00794780
Ti      8.49062405     2.22312089     5.84454671     0.00386514     0.02707553     0.00068674
Ti      3.28773057     7.69317195     5.79483135     0.01205359    -0.00295883    -0.00162982
Ti      3.33770438     2.17593369     5.84768431     0.00591868     0.00181700     0.00488947
Ti      9.53083977     7.76534231     1.19484848    -0.00042963    -0.00548031     0.00570374
Ti      9.67501578     2.19166675     1.15297068     0.00056719     0.01843302    -0.01613291
Ti      4.45013245     7.69253861     1.21738386    -0.00774982    -0.00770483     0.01746577
Ti      4.46800708     2.21778594     1.21156092    -0.00267832     0.01509984     0.01383511
Ti      5.89610040     8.81449687     8.11145548    -0.00897855     0.01303010    -0.00091480
Ti      5.91784987     3.30794596     8.11022021    -0.00094154     0.00134289     0.00186688
Ti      0.68193151     8.90107341     7.94701449     0.00130072     0.03037297    -0.02326206
Ti      0.73340594     3.30725182     8.06081305     0.01724028     0.01539911    -0.01200731
Ti      7.02368228     6.03160359     1.19511872    -0.02435941    -0.00756187     0.01507438
Ti      7.02739575     0.55052126     1.22067893     0.00220472    -0.02371766    -0.00882660
Ti      1.74386364     6.28556606     0.95164635     0.00779070    -0.00391348     0.02471782
Ti      1.88352539     0.52505795     1.15207879    -0.00849596    -0.00172367    -0.00053402
Ti      8.41662279    10.47599505     8.10936217     0.01213741     0.00321722     0.01581512
Ti      8.51393989     4.95364331     8.08485373    -0.01792291     0.03437078     0.01168130
Ti      3.32955269    10.45589404     8.08231434    -0.00751842     0.01065003     0.00031162
Ti      3.30605644     4.94373610     8.07246759    -0.02391307     0.02474508     0.02006387
Ti      5.89855661     6.14992672     5.96642758    -0.00486401     0.00171107    -0.00166685
Ti      5.90205773     0.54949739     5.82098523     0.00389702     0.01179340    -0.00258987
Ti      0.72997516     6.03947846     5.79125254    -0.00439093    -0.00137708     0.00045894
Ti      0.68910024     0.50403924     5.84213419    -0.01546622    -0.02771856     0.00456165
Ti      9.63195634    10.49063987     3.42389368    -0.00356381    -0.00717158    -0.00654372
Ti      9.65899016     4.99273426     3.38704506     0.00191650     0.01752156     0.00097805
Ti      4.43455717    10.45532186     3.44780667    -0.00097676     0.00109606     0.00149355
Ti      4.74617051     4.90368464     3.63337328    -0.02757869     0.00340800    -0.00449789
O       6.81344468     7.44696916     4.74376917     0.01003913     0.01003965    -0.00691807
O       6.83540511     1.92300208     4.72437630     0.00336815    -0.03384190     0.00392839
O       1.63834665     7.44138565     4.72938417     0.00493446    -0.00902020    -0.01309618
O       1.60137464     1.86991028     4.72498428     0.02644381    -0.00884100     0.00451023
O       8.71713582     9.07918966     4.53987368    -0.01530398     0.00091171    -0.00699289
O       8.75095194     3.55734570     4.53417236     0.00533761    -0.00049571    -0.00325348
O       3.52695073     9.07875043     4.53486291     0.00069008     0.00575722    -0.01157845
O       3.44389712     3.65451798     4.36389407    -0.02087299    -0.03070850    -0.00870036
O       6.09661725     7.41883548     0.11978054     0.00478020     0.00417264     0.00127372
O       6.13036475     1.92298006     0.09610504     0.00216795     0.00876772    -0.00594671
O       0.89923612     7.48057077    -0.02383180    -0.02722851     0.03230541    -0.03512051
O       0.95446953     1.92996585     0.08089356     0.00443258    -0.01756553    -0.00158637
O       9.37859433     9.10575261     9.16380744     0.00629895    -0.00124339    -0.01099713
O       9.41684745     3.57684013     9.16134681    -0.00616191    -0.00219495     0.01032633
O       4.19854882     9.07070898     9.19721465     0.00356869    -0.01802730    -0.01420201
O       4.24324639     3.57782031     9.19242245    -0.00885720    -0.00702863    -0.00270326
O       8.69826918     6.33691648     0.09997260     0.01314451    -0.00665505     0.00562506
O       8.70416190     0.82001274     0.09058300     0.00335426     0.00265621    -0.00904874
O       3.53173765     6.31597774     0.09891734     0.02325229    -0.01511963    -0.00260684
O       3.53980495     0.81793069     0.11317064     0.00206511    -0.00576159    -0.00725823
O       6.79746999    10.18360209     9.19380681     0.00454263     0.01996051    -0.00697746
O       6.82397998     4.66907163     9.18569662     0.01966946     0.01198829    -0.01384102
O       1.61616979    10.21491525     9.15511670     0.00007533    -0.00444184     0.00533787
O       1.66153076     4.67278755     9.20740167    -0.00855586     0.00074382    -0.01165353
O       9.41165175     6.31446732     4.71267011    -0.01407988     0.00340311     0.00238650
O       9.41067449     0.80623899     4.73853345     0.00677486    -0.00557441     0.00342163
O       4.24717007     6.32791440     4.75278820     0.00588243    -0.00201857    -0.00073174
O       4.22323035     0.84432055     4.70565102    -0.00763309    -0.00206974     0.00651878
O       6.11604379    10.19745045     4.54736138     0.00722763    -0.00529056     0.00109889
O       6.20618187     4.68130955     4.61966165     0.02898071    -0.01926194     0.03787391
O       0.94200545    10.16606359     4.55117841     0.00716695     0.00764775     0.00468147
O       1.00746414     4.71898599     4.44418847     0.00277114    -0.01319362     0.04071086
O       5.34820960     8.84308934     2.51445658     0.00917936     0.00595493     0.00278759
O       5.42303293     3.34233602     2.52623917     0.00504014    -0.00943852     0.00523477
O       0.18552922     8.86639349     2.48008700    -0.00813060    -0.00137246    -0.01828801
O       0.17310839     3.37214457     2.46546093     0.01223254    -0.00157866    -0.00221398
O      10.17156693     7.66765273     6.73299694    -0.00309432     0.01346076    -0.00092483
O      10.17253013     2.14316648     6.77222735     0.00995789    -0.00044043    -0.00984347
O       4.97373168     7.66110680     6.79699387    -0.00492135    -0.01251485    -0.01962755
O       4.97826011     2.18387801     6.74339574    -0.01610745    -0.00894744    -0.00751354
O       7.92634877     7.66530458     2.13944765     0.00613491     0.00628815     0.01151443
O       7.97845994     2.11566047     2.13624914    -0.00116600     0.01632111     0.01145144
O       2.74071315     7.53135705     2.15776554     0.00583229     0.00089912    -0.00897238
O       2.77330953     2.25791108     2.11630075     0.01565931    -0.00977662     0.01249737
O       7.54619191     8.85149566     7.13713372    -0.00409628     0.00365482     0.00168433
O       7.58777241     3.36081416     7.13487878    -0.00574205     0.00586109    -0.00192319
O       2.38157905     8.89694059     7.10931442    -0.00045431     0.00045123    -0.00406234
O       2.41390574     3.36635048     7.10962773    -0.01875775    -0.00351187    -0.01498748
O       5.33532967     6.05346374     2.15993995     0.00813549    -0.00349927    -0.00476734
O       5.36106799     0.59132500     2.14112452     0.01275730    -0.00711604    -0.01153809
O       0.21117624     6.13872893     2.09002691    -0.02235549    -0.00170361     0.00773054
O       0.20838621     0.61709487     2.14766634     0.01195023    -0.00149793    -0.00017869
O      10.12471465    10.41503691     7.11733135    -0.00882069    -0.00870164     0.00324499
O      10.17962279     4.89984495     7.11617865     0.00388622     0.00656634     0.00169179
O       4.98292757    10.42076562     7.14075824     0.01206619     0.00215433     0.00698235
O       4.99708934     4.90918978     7.15066394     0.02302887     0.01369601     0.00840443
O       7.58723446     6.11484688     6.79384948    -0.00781230    -0.00557004    -0.00193501
O       7.55879651     0.60470586     6.77378866     0.00833501    -0.00060601     0.01767146
O       2.39362249     6.11065331     6.77112544    -0.00574050     0.00041703     0.00725128
O       2.41705448     0.64403302     6.75359845    -0.00459379    -0.00618531    -0.01567319
O       7.95318022    10.41221005     2.50641262     0.00430583    -0.00425698     0.00840057
O       7.97085405     4.90267556     2.49486750    -0.01633654    -0.01595756     0.01066957
O       2.77135244    10.40003790     2.48465782    -0.01335252    -0.01269277    -0.00364660
