# total energy = -19961.26223968 eV

CRYSTAL
PRIMVEC
        5.18221935     0.00000000     0.00000000
        0.55019773     5.48793718     0.00000000
        0.00000000     0.00000000     9.28667550
PRIMCOORD
24 1
Ti      2.20435199     3.25214652     3.44529046     0.51880150    -0.60294474     0.41067423
Ti      3.52806526     2.23579070     5.84138536    -0.51880150     0.60294474    -0.41067423
Ti      4.69348084     2.23579257     1.19801036    -0.70374411    -0.36525465     0.40421690
Ti      1.03893642     3.25214492     8.08866562     0.70374411     0.36525465    -0.40421690
Ti      1.92925323     0.50817798     1.19804761     0.51880150    -0.60294474    -0.41067423
Ti      3.80316403     4.97975945     8.08862836    -0.51880150     0.60294474     0.41067423
Ti      0.76383759     0.50817596     5.84134816     0.70374411     0.36525465     0.40421690
Ti      4.96857961     4.97976142     3.44532771    -0.70374411    -0.36525465    -0.40421690
O       1.83393918     1.93239599     4.73891954     0.15714717     0.33665035    -0.29575102
O       3.89847807     3.55554129     4.54775627    -0.15714717    -0.33665035     0.29575102
O       1.14467106     1.93241818     0.09561153     0.12351019    -0.26762597     0.24800510
O       4.58774625     3.55551914     9.19106407    -0.12351019     0.26762597    -0.24800510
O       3.62337930     0.81157254     0.09558142    -0.15714717    -0.33665035    -0.29575102
O       2.10903795     4.67636474     9.19109418     0.15714717     0.33665035     0.29575102
O       4.31264748     0.81155039     4.73894971    -0.12351019     0.26762597     0.24800510
O       1.41976972     4.67638689     4.54772616     0.12351019    -0.26762597    -0.24800510
O       0.52294344     3.33807461     2.50856280    -0.17471270     0.03127337    -0.10238317
O       5.20947375     2.14986267     6.77811302     0.17471270    -0.03127337     0.10238317
O       2.99493323     2.14981156     2.13480464     0.35085621    -0.04436414    -0.22936126
O       2.73748402     3.33812567     7.15187107    -0.35085621     0.04436414     0.22936126
O       0.24784468     0.59410586     2.13477495    -0.17471270     0.03127337     0.10238317
O       5.48457251     4.89383137     7.15190070     0.17471270    -0.03127337    -0.10238317
O       2.46238525     0.59415697     6.77814265    -0.35085621     0.04436414    -0.22936126
O       3.27003200     4.89378031     2.50853316     0.35085621    -0.04436414     0.22936126
