# total energy = -19072.82519077 eV

CRYSTAL
PRIMVEC
        7.60600008     0.00000000     0.00000000
        0.00000000     7.60600008     0.00000000
       -1.89786986    -1.89786986     4.85670466
PRIMCOORD
22 1
Ti      3.49561601     6.60217000     1.46968001     1.18773466    -0.25912076    -1.64979009
Ti      3.92550701     2.89702700     1.20409002     0.86631579     0.04599782     0.63039282
Ti     -0.14851502     6.48050902     0.89951301    -0.79765806     0.67017320     1.38641981
Ti      0.30716400     2.81618798     1.09067300    -0.43810689     0.23247769    -0.24917393
Ti      6.04201423     2.83055424     3.49943381    -1.72506277     3.13770758    -1.53711094
Ti      5.91392021    -0.85142180     3.57275079    -1.16263760    -0.85331706    -0.31253519
Ti      1.95027424     3.03716822     3.65574679     2.74698666    -2.35726564     0.08462969
Ti      1.14276425    -1.10383279     3.98449879     2.43708017     0.50438866    -0.91618415
O       3.63260301     4.75999699     0.87818198    -0.25127478     1.70282863     1.07024497
O       3.96859500     0.81506298     0.90068201    -1.64444143     0.96463481    -0.03541310
O       0.50997801     4.68880598     0.68734399    -0.22332585     0.70292650    -0.71031173
O      -0.06290002     0.87119800     0.66981600     0.68939426     1.01807984    -0.41269101
O       5.35151624     4.60421223     3.96039281     1.04875645     1.72632209    -0.37157160
O       5.82259623     1.14157921     3.82637581     0.25930536    -5.08203154     0.56434758
O       1.98814221     4.75108221     4.19925680    -1.15667855     2.36448736     0.47429080
O       1.76416122     1.22103523     4.15228782    -0.73813005    -3.44620717     0.11210348
O       3.85281621     2.85459820     3.31883583     0.22260002    -0.09236023    -0.96674929
O       0.23296621     3.36316421     2.86802279    -1.71362367    -0.60522685     1.77928941
O       5.59829498     6.47018202     1.58302200     1.59244470     0.09039899     1.67054687
O       5.84753302     2.96636499     1.54935801     0.21621469    -0.48288883     0.00519594
O       1.65017099     6.60188498     2.10815400     0.26063694     0.39292153     0.58069621
O       2.11200700     2.62543403     1.68913299    -1.67653060    -0.37492637    -1.19662682
