# total energy = -19933.26205432 eV

CRYSTAL
PRIMVEC
        4.83405988     0.00000000     0.00000000
        1.74723092     4.83913216     0.00000000
        0.00000000     0.00000000     8.79162588
PRIMCOORD
24 1
Ti      2.78752170     2.86766516     3.26163051     4.01515651    -2.94189589     1.12226329
Ti      3.79376928     1.97146687     5.52999547    -4.01515651     2.94189589    -1.12226329
Ti      4.88088866     1.97146852     1.13414738    -7.85086462     1.42026763     2.58703493
Ti      1.70040235     2.86766366     7.65747870     7.85086462    -1.42026763    -2.58703493
Ti      1.91390636     0.44809921     1.13418262     4.01497808    -2.94129811    -1.12366172
Ti      4.66738464     4.39103292     7.65744345    -4.01497808     2.94129811     1.12366172
Ti      0.82678691     0.44809743     5.52996022     7.85112250    -1.42055662     2.59231932
Ti      5.75450410     4.39103475     3.26166576    -7.85112250     1.42055662    -2.59231932
O       2.14524023     1.70394064     4.48629940    -1.83939565    -0.49172958    -1.14244466
O       4.43605075     3.13519139     4.30532658     1.83939565     0.49172958     1.14244466
O       1.50228453     1.70396016     0.09051474     1.91000948    -0.67872649    -1.33555232
O       5.07900651     3.13517191     8.70111100    -1.91000948     0.67872649     1.33555232
O       3.56243540     0.71562534     0.09048621     1.83908301     0.49183139    -1.14243180
O       3.01885559     4.12350669     8.70113953    -1.83908301    -0.49183139     1.14243180
O       4.20539115     0.71560581     4.48632792    -1.91018329     0.67890493    -1.33500673
O       2.37589979     4.12352623     4.30529806     1.91018329    -0.67890493     1.33500673
O       1.23839744     2.94343442     2.37483749    -0.37234190    -3.03920242    -3.10839648
O       5.34289355     1.89569761     6.41678849     0.37234190     3.03920242     3.10839648
O       3.27712195     1.89565254     2.02100345     2.09706734    -3.20921899    -3.78219083
O       3.30416904     2.94347950     6.77062239    -2.09706734     3.20921899     3.78219083
O       0.36478208     0.52386837     2.02097536    -0.37286023    -3.03929857     3.10838851
O       6.21650890     4.31526366     6.77065048     0.37286023     3.03929857    -3.10838851
O       2.43055368     0.52391345     6.41681649    -2.09683774     3.20902538    -3.78123283
O       4.15073730     4.31521859     2.37480944     2.09683774    -3.20902538     3.78123283
