# total energy = -19960.22077492 eV

CRYSTAL
PRIMVEC
        5.93400000     0.00000000     0.00000000
        0.00000000     9.29699974     0.00000000
        0.00000000     0.00000000     4.64899994
PRIMCOORD
24 1
Ti      4.49141101     7.06128000     2.47715703    -1.90373830    -0.95254291    -0.97904816
Ti      4.44435202     2.36090001     2.38861800     0.53025629    -1.94871514     0.28900830
Ti      1.45667003     6.98465598     2.23178097     1.97516332     0.34358358     0.88437703
Ti      1.49051700     2.39873402     2.25323102    -0.20201911    -2.13195259     0.24920761
Ti      2.91551100     4.56582201     0.08059401     1.62013498     0.98124312    -1.37103844
Ti      2.96757299     9.20446300     4.58861098    -0.44645732     1.90008322     1.44679988
Ti      5.92739698     4.70557598     0.03999400    -1.48458971    -0.39109245    -0.18936876
Ti      0.01147002     9.26372201     4.59833202     0.77616208     2.21573870     0.92230955
O       4.30810401     5.62118301     0.93662198     1.48052222    -0.58038202    -0.39597780
O       4.36676897     0.91700602     0.76981701     1.03113771     0.12099667     0.53275566
O       1.52324000     5.43278300     0.94507601    -1.12010511     0.94554256     0.49520237
O       1.53064901     0.90263700     0.84000898    -0.26390044     0.43772019    -0.28074914
O       4.48548597     8.49124001     3.70955200    -0.06636303    -1.88404622    -0.77318834
O       4.46835799     3.77181700     3.76637002     0.35366206    -0.17396373    -0.34161772
O       1.50141302     8.29072798     3.86237299    -0.83036661    -0.37913193    -1.07499740
O       1.44870998     3.64255302     3.74273998    -0.05149742     0.72634308     0.19861805
O       2.85038198     6.15883900     3.30456100     0.96742575    -0.47698121    -0.36977337
O       3.02459899     1.34651601     3.10114299    -0.32419772     0.62380205     0.11382458
O       0.00856801     6.08077700     3.21460299    -0.26900280    -0.40164040     0.60577167
O       0.04313498     1.23912902     3.06440598     0.19769348     1.33821367     0.08299113
O       2.95419201     7.93528100     1.52727799     0.10360315    -0.21742568    -0.58681286
O       3.12652398     3.21555900     1.35352502    -1.32727336    -0.10503423     0.54223532
O       0.00915900     7.95639401     1.43605799    -0.55483218    -0.84807741     0.42471580
O       0.03466698     3.19570401     1.40497301    -0.19141819     0.85771956    -0.42524468
