# total energy = -19960.59664077 eV

CRYSTAL
PRIMVEC
        5.93400000     0.00000000     0.00000000
        0.00000000     9.29699974     0.00000000
        0.00000000     0.00000000     4.64899994
PRIMCOORD
24 1
Ti      4.46436402     7.00536401     2.21640298     0.64503423     0.58446416     0.01081946
Ti      4.43960699     2.39334900     2.37360799     0.04125105     0.07530995    -1.23984297
Ti      1.48556601     6.83903201     2.34854801    -0.74401737     1.22708284     0.42459239
Ti      1.49889102     2.27872799     2.44832798     0.18076919     0.33682569    -1.25136974
Ti      2.94842302     4.69783898     4.63377800     1.55637468     0.70849731     0.43942638
Ti      2.91937400     0.02936701     0.05425300     0.12409228    -1.64012686     0.16174765
Ti      0.06282699     4.57477903     4.61018998    -1.79035390     0.87515062     0.52465308
Ti      5.89875801     0.05677601     4.60760998    -0.54040443    -1.75932581     0.37742240
O       4.48294698     5.61149499     0.84917401    -0.58564070    -1.09548267    -0.43869335
O       4.52070600     0.89354500     1.12114302    -0.49878803    -0.26867267    -1.47244716
O       1.43729499     5.63063703     0.77644098     0.61304404    -0.28724478     0.36539272
O       1.44273002     0.74607700     0.94775100     0.47348528     1.34507980     0.85511812
O       4.50314203     8.39621698     3.67368098    -0.04786625     0.89065978     0.85677725
O       4.40260602     3.83804602     3.62607698    -0.10056000    -0.46390689     0.68742299
O       1.47901401     8.33175202     3.70656199     0.12825799     0.65151187     0.27119749
O       1.49419801     3.80765802     3.72893100     0.60023300    -1.04692737    -0.68427699
O       3.03851598     6.11591299     3.25411401    -0.93993190    -0.50485789    -0.32353771
O       2.91000999     1.45298600     3.42046802     0.38343493     0.87715351    -1.13478945
O       0.00292201     5.88315501     3.08911898     0.67634025     1.05682792    -0.00874253
O       5.91800800     1.54084800     3.28371899    -0.06884003    -0.44702167     0.70404544
O       3.03333602     7.86913802     1.34658301    -0.56339679    -0.30109249     0.28433532
O       2.87347300     3.13318002     1.35701002     0.43597775     0.27265711     0.45746858
O       0.00229298     7.89981099     1.41358902     0.39701319    -0.60576576     0.14607831
O       0.03814098     3.27482601     1.42842598    -0.37550796    -0.48079570    -0.01279818
