# total energy = -19914.03470157 eV

CRYSTAL
PRIMVEC
        6.47777419     0.00000000     0.00000000
        0.68774716     6.85992147     0.00000000
        0.00000000     0.00000000    11.60834437
PRIMCOORD
24 1
Ti      2.75543998     4.06518315     4.30661307    -0.08611425    -1.34305172     0.69895388
Ti      4.41008157     2.79473838     7.30173170     0.08611425     1.34305172    -0.69895388
Ti      5.86685105     2.79474071     1.49751294     0.14658867     0.39458529    -0.51961166
Ti      1.29867053     4.06518115    10.11083202    -0.14658867    -0.39458529     0.51961166
Ti      2.41156654     0.63522247     1.49755951    -0.08611425    -1.34305172    -0.69895388
Ti      4.75395503     6.22469932    10.11078545     0.08611425     1.34305172     0.69895388
Ti      0.95479699     0.63521995     7.30168520    -0.14658867    -0.39458529    -0.51961166
Ti      6.21072451     6.22470178     4.30665964     0.14658867     0.39458529     0.51961166
O       2.29242398     2.41549498     5.92364943     1.60843517     1.64492376    -0.27547529
O       4.87309758     4.44442661     5.68469534    -1.60843517    -1.64492376     0.27547529
O       1.43083882     2.41552273     0.11951442    -1.18611281     0.90452086     0.33637704
O       5.73468281     4.44439893    11.48883009     1.18611281    -0.90452086    -0.33637704
O       4.52922412     1.01446567     0.11947678    -1.60843517    -1.64492376    -0.27547529
O       2.63629744     5.84545592    11.48886772     1.60843517     1.64492376     0.27547529
O       5.39080935     1.01443799     5.92368713     1.18611281    -0.90452086     0.33637704
O       1.77471214     5.84548361     5.68465770    -1.18611281     0.90452086    -0.33637704
O       0.65367931     4.17259326     3.13570349     0.48329893     0.43890881     0.87034703
O       6.51184219     2.68732834     8.47264127    -0.48329893    -0.43890881    -0.87034703
O       3.74366654     2.68726445     2.66850580     0.54058467     0.92473179     0.17313815
O       3.42185502     4.17265708     8.93983884    -0.54058467    -0.92473179    -0.17313815
O       0.30980585     0.74263232     2.66846869     0.48329893     0.43890881    -0.87034703
O       6.85571564     6.11728921     8.93987588    -0.48329893    -0.43890881     0.87034703
O       3.07798156     0.74269621     8.47267832    -0.54058467    -0.92473179     0.17313815
O       4.08754000     6.11722539     3.13566645     0.54058467     0.92473179    -0.17313815
