# total energy = -19960.30778323 eV

CRYSTAL
PRIMVEC
        7.60600008     0.00000000     0.00000000
        0.00000000     7.60600008     0.00000000
       -1.89786986    -1.89786986     4.85670466
PRIMCOORD
24 1
Ti      3.83474401     6.64779598     1.15413003     0.28892860    -0.98334705    -1.28647791
Ti      3.75255701     2.72406499     1.22274098     1.01415633     1.37743535    -0.17040738
Ti      0.02687802     6.74813502     1.25424999    -0.47334695    -1.09453805    -0.79292491
Ti     -0.09457599     2.75207101     1.25040102    -0.33641303     1.59214517     1.53060373
Ti      5.62363723     2.84458220     3.71634780     2.70813754     0.72641816     1.20554393
Ti      5.66627621    -0.84368777     3.57537683     1.39357468    -1.30146231     0.56136382
Ti      1.96579823     2.79642522     3.64082780    -1.40699482     0.54269194     0.36408197
Ti      2.00283424    -0.89506876     3.52181980    -1.46698562    -0.29414357     1.13525997
O       3.84215498     4.64238100     0.73687699    -0.47109132     0.02033512     1.27175963
O       3.95793700     0.84077798     0.63482998    -0.34064996     1.87704304     0.93910761
O      -0.18348898     4.64781401     0.79827600     0.58659560     1.32361854     0.64517615
O      -0.15166601     0.92106502     0.79861801     0.05222452     0.06648104    -0.17359658
O       5.80655422     4.76185424     4.16035481    -0.12972249     0.13508890    -0.52852619
O       5.68741822     0.89102722     4.18248982    -0.16578659     0.04243196    -1.68563411
O       1.78752022     4.62817523     4.06364079     0.36916916     1.30744218    -0.52242959
O       2.11721124     0.93307824     4.00171483    -0.54281921    -1.17327554     0.80999807
O       3.89000821     2.81741022     3.25011279    -2.98231082    -0.09045787    -0.62895866
O       3.80833722    -0.90811875     3.08561582     0.69629253    -0.71804793     1.14572359
O      -0.05352977     2.71523525     3.14529982     0.22331402    -0.32268694     1.77314473
O      -0.02756077    -0.73648477     3.22579382     0.66179526    -0.70014148     0.02606791
O       5.71711798     6.71290298     1.60311602    -0.40042787    -0.35205923     0.14522599
O       5.65234599     2.88360198     1.79754500    -0.93008791    -0.52496238    -2.16188076
O       1.96044899    -0.64073999     1.67622000    -0.75300260    -0.88517535    -1.39204051
O       1.80669400     2.91298699     1.78020402     2.40545122    -0.57083396    -2.21017972
