# total energy = -39033.89262216 eV

CRYSTAL
PRIMVEC
        5.93200024     0.00000000     0.00000000
        0.00000000     9.29399984     0.00000000
        0.00000000     0.00000000     9.29399984
PRIMCOORD
46 1
Ti      4.40936102     7.18201898     6.84044899    -0.62440086    -1.65980994     0.20244951
Ti      4.46200299     6.90300398     2.45281900     0.99880967    -0.08292274    -1.01398510
Ti      4.45521598     2.16391801     7.03648302     0.59757036     0.40583104     0.46847317
Ti      4.47006300     2.55742300     2.05308999    -0.08097461    -0.07017417     0.77422733
Ti      1.52169400     6.79776603     7.13773098    -1.55728382    -0.12077350    -0.55051273
Ti      1.53299400     7.05378198     2.28331802    -1.15313531    -0.16341141    -0.52439597
Ti      1.54617702     2.49457701     6.85021400    -0.97345936    -1.07423275     0.45497693
Ti      1.46067600     2.07095798     2.48269301    -0.46031351     0.98082531    -1.21971354
Ti      2.94450801     4.67981399     4.81755899     0.84411842     0.29887851    -1.60160863
Ti      2.94518202     4.83536501     9.14513402     0.71398841    -0.33606748     0.59180492
Ti      2.95038003     9.24862098     4.56059401    -0.84698314    -0.20698005     0.86480835
Ti      2.98132001     0.04282700     9.27513398    -0.67432322    -0.15450587     0.84699317
Ti      0.00938300     4.65525900     4.76709902    -1.15649780    -0.34120711    -1.30771857
Ti      0.00725401     4.65542802     0.00673902    -0.78609066     1.00833535    -0.77685937
Ti      5.88236299     9.06877301     4.87891598     1.18706231     1.03250399    -0.92933432
Ti      5.92348599     9.21794199     9.02965998     0.70778048    -0.40731071     1.69174074
O       4.33222799     5.58916800     5.76859200     0.30663450    -0.38766671    -1.56872369
O       4.38640600     5.62534901     0.79327400     0.06903954    -1.12668816     1.46067304
O       4.42719900     0.79419700     5.54286298     0.24263150     0.67096484     0.29178844
O       4.46273500     0.88187399     0.69343001     0.14900962     1.58710709     1.49782653
O       1.41919200     5.44640899     5.68841202     0.87739854     0.76986031     0.81072852
O       1.44840301     5.83863798     0.75524098     0.40594546    -1.99159987    -0.02471834
O       1.52989800     0.79312298     5.59850702    -0.62929804     1.32410242    -0.83383349
O       1.40961802     0.72087801     0.89322601     0.61926945     1.09572281     1.12694116
O       4.37153898     8.55445003     8.17231600     0.13069076    -0.56914295     0.04131327
O       4.46014902     8.08381401     3.94578101    -0.23402395     1.71421811    -0.05060499
O       4.41667399     3.77798700     8.36462901    -0.26294810    -1.03501339     0.77803873
O       4.50183401     3.94370700     3.71827300    -0.67132814    -0.86674259    -1.01862183
O       1.53847702     8.12605802     8.32015600    -0.37057632     2.57908328     1.87073947
O       1.38782798     8.38307698     3.78337302     0.72041463     1.15422392    -0.93961746
O       1.44102998     3.75802098     8.33417899     0.61480576     0.57904710     0.07415039
O       1.41124598     3.73224899     3.95408798     0.38849486    -1.42162183    -1.32386691
O       3.07426698     6.05252602     7.85741003    -0.01821782     0.64005863    -0.54652623
O       2.86591598     6.05466803     3.31827199     0.41916582     0.12622964    -0.52964616
O       2.84677601     1.45718502     7.87577999     0.33151071     0.06477691    -0.16012374
O       3.13686802     1.61413598     3.12111700    -0.23032748    -1.03666018     0.31609951
O       5.76481399     6.04332702     7.90609200     0.95725369     0.64615806    -0.52027012
O       0.16972101     6.21636501     3.35332601    -0.88165577    -1.16932710    -0.49898523
O       0.18913499     1.43813099     7.93725001    -1.12617420    -0.05299354    -0.96867556
O       2.81343599     7.94938003     6.04207498     0.47479808    -1.18627556     0.23728000
O       3.14882700     7.84391500     1.37182302    -0.79370215     0.64083047     0.68920374
O       3.10150601     3.18130398     6.04747799    -0.49705587    -0.09399982    -0.01833814
O       0.05124600     7.87711600     6.17523598     0.78451843    -0.53058873     0.16079814
O       5.86067599     7.90152499     1.38797102     0.07955562    -0.27629625     0.41415114
O       5.73428301     3.17914700     6.04769299     1.21241109    -0.24053785     0.37952351
O       0.16660500     3.27308999     1.39240103     0.19589114    -0.71620753     0.88195093
