# total energy = -19960.54343324 eV

CRYSTAL
PRIMVEC
        5.93400000     0.00000000     0.00000000
        0.00000000     9.29699974     0.00000000
        0.00000000     0.00000000     4.64899994
PRIMCOORD
24 1
Ti      4.43802999     7.03931501     2.36183798    -0.21064053    -0.81745941    -0.46271518
Ti      4.42062398     2.25127798     2.41156402     0.20619432     0.15516228    -0.27329963
Ti      1.49796300     6.90864798     2.32957499     0.38209924     0.73297345     0.67625977
Ti      1.46910802     2.37405202     2.17071201    -0.82235120    -0.47390514    -0.35232328
Ti      2.93005200     4.62617399     0.01888702     2.27818645     0.92277929     0.04860415
Ti      2.98785001     9.29669901     4.59416199    -0.76879150    -0.47415531     0.00528799
Ti      0.06270697     4.66870201     4.57109802    -1.72232608     0.16158078     0.52700770
Ti      5.91995903     0.01613901     0.06270200     0.21013428    -0.36107943    -0.26663378
O       4.34434302     5.62671000     0.99613998     0.57631839    -0.71185723    -0.51484097
O       4.47814099     1.04845597     0.82364698    -0.15816507    -0.89910200     0.03730852
O       1.54091499     5.41956097     1.04409100    -0.81334282     0.62944742    -0.30866028
O       1.43751799     0.85818299     0.83176800     0.94786941     1.58019468     1.03050341
O       4.49251398     8.43811501     3.79851098    -0.32452373    -0.64920327    -0.12163534
O       4.40154698     3.81282300     3.59671098     0.56496491    -0.06208856     1.02176963
O       1.55911800     8.27534898     3.85802098    -0.29986453     0.56589770    -0.07210404
O       1.47999198     3.80848301     3.72712698    -0.24750065    -0.81675750    -0.82907103
O       2.97952700     6.08999003     3.33141299    -0.15573100    -0.16949207    -0.16746861
O       2.93021297     1.23292002     3.16080699    -0.04574534     1.49752776    -0.44816299
O       0.03020200     6.15388701     3.34524701    -0.09774489    -0.37518220    -0.03276461
O       5.87122101     1.40401398     3.12791000     1.20315434    -0.05267961     0.39490128
O       2.97102498     7.95811097     1.69491197    -0.02107945     0.41860120    -1.61604924
O       2.99386300     3.14596902     1.38995099    -0.86974462     0.17021892    -0.19136985
O       0.03738801     7.89898399     1.37537999    -0.23447441    -0.63639352     1.09476790
O       0.00642897     3.22748703     1.28969201     0.42310424    -0.33502798     0.82068846
