# total energy = -19073.01769344 eV

CRYSTAL
PRIMVEC
        5.93400000     0.00000000     0.00000000
        0.00000000     9.29699974     0.00000000
        0.00000000     0.00000000     4.64899994
PRIMCOORD
22 1
Ti      4.50996899     6.94840501     2.48483100    -2.21211756    -0.30347719    -1.35598745
Ti      4.39288498     2.46293798     2.20650202     0.27215317    -1.12159686     0.47586663
Ti      1.37175502     7.03534301     2.36007502     2.36748604     0.96090980     0.85528755
Ti      1.52931998     2.30833901     2.03438701     0.61829937     0.94102359     1.16141504
Ti      3.00763499     4.63152000     0.02589899     0.18489093     1.40363798    -0.98084511
Ti      2.95725600     0.06437198     0.19967900     0.81496441    -0.09976295    -0.49449171
Ti      5.89670301     4.58234298     4.44571899     1.55861514     0.01345819     1.52809151
Ti      0.00393501     9.00166799     0.05653899    -0.22461063    -0.00860163     0.17708660
O       4.53248803     5.68947598     0.95538402    -0.77153435    -0.77296260     0.01811626
O       4.64813098     1.03740702     0.82657201    -0.17241567    -0.71009679    -0.50579686
O       1.29848000     0.83089300     0.92189599     0.71063826     1.30624507    -0.25743926
O       4.46374002     8.17430697     3.95453497    -1.01302916     1.60373211     0.33233140
O       4.45461801     3.85227798     3.67690102    -0.79728139    -1.51050001    -0.97375658
O       1.64966499     8.29003100     3.90824800    -0.99000852     0.22274709    -0.46376933
O       1.48664802     3.69487997     3.64240300    -0.29241810     0.64670313     0.70633475
O       2.96413302     5.98869899     3.23831701    -0.73006681    -0.18184211    -0.02565371
O       2.87045098     1.38247498     3.05253600     0.39790664     0.50379268     0.44971259
O       0.02707303     6.25171300     3.49029100     0.88255540    -0.98204864    -0.78176529
O       2.93531901     8.07974702     1.47961801     0.00734539    -1.17747415     1.12429935
O       3.06134400     2.92393302     1.08631998    -1.26810634     2.10167013    -0.71834823
O       5.88017701     8.21409100     1.74022399     0.38744868    -1.74972197    -0.07608206
O       5.90307197     3.45331702     1.45618900     0.26928510    -1.08583435    -0.19460636
