# total energy = -39031.58190823 eV

CRYSTAL
PRIMVEC
        7.60600008     0.00000000     0.00000000
        0.00000000     7.60600008     0.00000000
       -3.79573973    -3.79573973     9.71340985
PRIMCOORD
46 1
Ti      1.88714646     4.82994745     6.18590965    -0.28219642    -1.27832623    -0.65429175
Ti      3.79636098     7.03008003     1.10875599    -0.31466689    -1.21420880    -0.35517824
Ti      2.14611443     0.73357546     5.96907763    -2.04941321     0.35208571     1.78824148
Ti      3.68818900     2.90294399     1.29572802    -1.34848883    -0.53397076     0.89582924
Ti     -1.95702955     4.33412646     6.19838765     1.08341108     1.12903275    -2.00158347
Ti     -0.04202699     6.75211697     1.34405502     0.10267833     0.70780131    -2.79023675
Ti     -1.83100155     0.64140447     6.00740361     1.66376224    -0.47396530    -0.34316321
Ti      7.17905199     3.05985002     1.00761699     1.98051044     0.01862328     1.00879712
Ti      3.82940847     1.15310146     8.48731564     2.13984588     1.43692864     2.01523449
Ti      5.78694699     2.69887002     3.65099599    -1.10166592     0.13121064     0.97754098
Ti      4.04464947    -2.65766753     8.46037961    -1.15536857    -1.32983316     2.42752518
Ti      5.37694400    -1.19281399     3.50908097     1.54713645     0.30276859     0.33895714
Ti      0.17274944     1.15981244     8.38509161    -1.33026356    -0.12198681     1.01028682
Ti      1.76658199     2.61965001     3.56989799     0.70192608     0.43843264     1.42043861
Ti      0.21422243    -2.50147854     8.32974163    -0.77292738    -0.23657937     1.68692018
Ti      1.66461398    -1.20538301     3.66447297    -0.03210461     0.01594753    -1.39087502
O       1.90264045    -1.07867554     5.59124962     0.65375104     0.96169707     0.56452936
O       3.83811698     1.15421999     0.68820401    -0.21584779     0.48223654     0.51209683
O      -1.55007653     2.51232546     5.73744262    -1.04084002     1.53184763    -0.59025788
O      -0.01765198     4.89715402     0.87240601     0.07324073    -1.05765042    -1.13071605
O      -1.77168453    -1.10788454     5.46108964    -0.92867972     0.52589595     1.36471070
O      -0.07371698     1.08796800     0.76890899    -0.81784071     0.71590723     0.64583513
O      -3.48469453     3.02660647     9.03037463    -1.01176701    -0.90446866    -1.17649791
O       5.43037799     4.64057698     4.19140403    -0.59578344    -1.76501181     0.24162337
O       3.91148043    -0.77143153     8.90160565     0.00831495    -0.48903017    -0.25227236
O       5.96119400     0.67631102     3.81294402    -1.22899419     1.50299470     0.99423362
O       0.27697846     3.01768545     8.90365965    -0.42467955    -0.16996901     0.03137981
O       1.96617897     4.54648900     4.34246302    -0.05919659    -0.60286915    -1.77790975
O       0.33197644    -0.64902653     9.18391261    -0.97246074    -0.23294023    -1.52385561
O       1.59447202     0.73072102     4.13459701     0.18113223     1.21610294    -0.56641372
O       2.07877244     0.94583046     8.10362964     0.22031740     0.84593722    -0.69790436
O       3.66466602     2.56489102     3.24458400     1.33537723    -0.05733871     0.23541569
O       1.99457447    -2.68465256     8.23358261    -0.15856976     0.28913711    -0.44308840
O       3.62537101    -0.78987298     2.99692201     0.72624307    -0.58416154     2.32911102
O      -1.64056854     1.07415647     8.49726660    -1.52114850    -0.24550085    -1.19624347
O      -0.10101099     3.09068598     3.43931001    -0.87336370    -0.58671619    -0.91859714
O      -1.72455156    -2.85999756     8.12019463    -0.97876174     0.63248570    -0.54777425
O      -0.20809498     6.31966200     3.08660300     1.25888817    -0.34411863     2.21070602
O       3.67816443     4.60894842     6.59890561     3.33298551    -0.74573744    -0.19052910
O       5.54241402     6.37529901     1.45780098    -0.89810801     0.85889198     0.56314148
O       3.89807843     0.85798444     6.55842762     1.74289157     0.10423513    -1.05216162
O       5.43558901     3.55421201     1.48003500     0.92095510    -1.21579826     1.65777209
O       0.00868644     4.84804647     6.39807665     0.01770668    -0.70123111     1.06061104
O       1.81542500     6.67389098     1.72014198    -0.10281511    -0.03295718    -0.80287714
O       0.10068343     0.61430547     6.70240760    -0.07040172     0.12505182    -2.64583377
O       1.70126702     2.89745299     1.83306999     0.59528002     0.59911688    -2.93267669
