# total energy = -19515.69764923 eV

CRYSTAL
PRIMVEC
        5.17600016     0.00000000     0.00000000
        0.00000000     5.50899976     0.00000000
        0.00000000     0.00000000     9.26300011
PRIMCOORD
23 1
Ti      1.98852698     3.15301602     3.35747503    -0.49972442     0.42490041     3.05666510
Ti      3.22501201     2.24700599     6.01512399     0.95540378     0.44476013    -3.29251171
Ti      4.42324298     2.16453302     1.56294797     0.99751101    -1.22576926    -4.23680266
Ti      0.89719500     3.42217298     7.65018702    -1.90621273    -0.19072785     2.83615821
Ti      1.95930401     0.26784502     1.45341601     2.21946783    -0.96094733    -3.12127026
Ti      3.18340000     5.23874100     7.80416601     0.44016043    -0.62379665     4.88245549
Ti      0.72785600     0.60977698     5.87582501    -1.62803290    -1.48567395    -3.10962599
Ti      4.55205102     4.83631102     3.43467802     0.03768699     1.61385069     3.46131729
O       1.55833201     1.87468301     4.83108502     1.39977644     0.28528380    -1.01271086
O       3.52460598     3.34605797     4.43493700     0.17716964     0.82889029    -0.04638683
O       5.11431201     2.78263698     9.17199501     0.13970506    -0.30552584     0.59397493
O       3.36956900     0.83256901     0.12847302    -0.22317595     0.45919097     1.25249743
O       1.94168902     4.44086802     9.08819000    -0.54334989     0.07065086    -0.32215857
O       4.18211601     0.70884901     4.84105202    -0.09761531    -1.16294176    -0.41856958
O       1.01886502     4.70133801     4.38035100    -0.06724671     0.13166547     0.67864833
O       0.12809698     3.28140701     2.64308600     1.64390509     0.00464933    -0.55937404
O       5.07500599     2.16327300     6.49173600    -1.08546051     1.40087148     2.20984933
O       2.82270199     1.78011602     2.35974699    -1.58478821    -0.54003651    -0.03192206
O       2.52588901     3.91504602     6.69894202    -0.64475346    -1.81261323    -0.67744274
O       0.30414902     0.67196800     2.19376102    -0.84974888     0.00475423    -0.65180318
O       4.85502198     4.80491800     7.26486899     2.64836811     0.37057169    -0.80713000
O       2.20029001     0.98589299     7.07467501    -1.13304136     2.31605239    -0.48677480
O       2.97697399     4.49408600     2.30054602    -0.39600428    -0.04805934    -0.19708259
