# total energy = -19072.51171657 eV

CRYSTAL
PRIMVEC
        5.17600016     0.00000000     0.00000000
        0.00000000     5.50899976     0.00000000
        0.00000000     0.00000000     9.26300011
PRIMCOORD
22 1
Ti      1.49749102     3.20017100     3.59899300    -0.88505914    -1.14773316    -0.46172273
Ti      4.46622900     2.97298002     5.78322899     1.15260541    -1.34778512    -0.79574618
Ti      4.16339499     2.01456700     1.41428700     2.84917288     1.22415281     3.50061919
Ti      1.32297599     2.92109001     8.14410101    -1.03493600     0.46851379     0.35469667
Ti      1.74437798     0.45937300     1.34884699    -1.03083843     0.39850160    -0.31145610
Ti      3.28597302     5.30096198     7.88231999    -1.67356664    -0.41505925     0.30366025
Ti      1.39934701     0.32379901     5.90959800    -0.35919893     0.47516909    -0.88422019
Ti      3.91915799     5.05248299     3.54390899     0.21188803    -0.54283850    -0.31705159
O       3.24851097     3.47124401     4.53074698    -1.33739734    -1.39311960     0.08823104
O       0.76636100     1.73829599     0.32994900    -0.79947711     1.35101751    -0.88202344
O       4.54223399     3.47651001     7.56371702     0.08519791     1.02001254     0.46895576
O       3.40165201     0.95029402     0.29286902    -1.31711287    -1.42738187    -2.60232992
O       2.03448798     4.48917000     9.09860902     0.16790570    -0.38816113     1.60689199
O       2.88840601     0.28712999     4.91239099     1.56270603     0.80383488    -0.57079411
O       0.31686800     4.32161698     4.84584102     0.35158358     2.05041645     0.19887053
O       5.04086702     3.35707798     2.57570999    -0.47261753     0.56610468    -0.60683096
O       0.69036702     1.80059100     4.88122700    -0.88298760     0.94115806     0.23833904
O       2.38381000     1.71062700     2.66017700     0.93771330     0.44722685    -1.21275767
O       1.82446102     4.29487802     6.90039302     0.68383425    -0.27130162    -1.27557052
O       5.07715001     0.69206499     2.33377698    -0.38242988    -1.45591470     0.84744826
O       2.18267401     1.46792197     7.27519498     0.97080778    -0.50721225     0.12026545
O       2.27966898     4.52770098     2.33627401     1.20220689    -0.84960079     2.19252523
