# total energy = -19516.75629512 eV

CRYSTAL
PRIMVEC
        5.17600016     0.00000000     0.00000000
        0.00000000     5.50899976     0.00000000
        0.00000000     0.00000000     9.26300011
PRIMCOORD
23 1
Ti      1.91261798     3.23306302     3.55073400    -0.18360126    -0.09010640    -0.14872603
Ti      3.42970100     2.28821000     5.86785798     0.54723920    -0.96609597    -1.84482351
Ti      4.30925497     2.21608198     1.41268799    -0.57564630    -0.23856864     0.81528477
Ti      0.78239899     3.50806199     7.79390098    -0.63780171    -0.17298080     0.80362096
Ti      1.94998599     0.18558299     1.50987298     0.80249584    -0.79088551    -0.60294140
Ti      3.20747100     5.06869201     8.07579402    -0.30901869     0.21475790     0.21272776
Ti      0.85102698     0.49631100     5.89983701    -1.02352441     0.81460652    -2.15151355
Ti      4.53300800     4.96060301     3.20299501    -0.36656771     0.31203922     2.90519724
O       1.55425698     1.98800600     4.78427802     1.16295256    -0.03321789     1.00660809
O       3.60627501     3.63305302     4.22834901    -0.26140338    -0.97459630     2.86745909
O       4.88738900     2.79032698     9.09635700    -0.87037376    -0.07192304     0.35540115
O       3.21754400     0.72898701     0.24245399     0.73914615     1.49475457     0.54559832
O       1.62494500     4.50312001     9.22000001     0.29126033    -0.30906857    -0.89290872
O       4.41328598     0.85826703     4.68590699    -0.91549201    -0.46778360     0.09528743
O       1.05227002     4.80912099     4.39110001     0.20059343    -0.76540818    -0.31368910
O       0.21387498     3.46730402     2.32094401     1.55400824    -0.75207058     0.49245026
O       5.10309700     2.01369502     6.71323499    -0.18496343     1.49213487     0.51832353
O       2.69621000     1.68879998     2.54776700     0.10230706    -0.75994716    -1.67460768
O       2.44950302     3.62880198     6.92800300     0.86105685    -1.10709815    -0.25954808
O       0.13776098     0.60033698     1.92339801     0.19730447     1.44842482    -1.02458448
O       4.98875100     5.01556701     7.36184998    -0.06903877    -0.24524348    -0.75773472
O       2.58520602     0.76968598     6.90559600    -0.67195883     0.83141974    -0.68104100
O       3.01077503     4.23717198     2.07592801    -0.38897411     1.13685611    -0.26583957
