# total energy = -4986.06089218 eV

CRYSTAL
PRIMVEC
        3.70258227     0.00000000     0.00000000
        0.00000000     3.12382610     0.00000000
        0.00000000    -0.00007056     4.90396533
PRIMCOORD
6 1
Ti      1.85129103     1.56187772     2.45198282     0.00000000     0.00000000     0.00000000
Ti      0.00000000     0.00000000     0.00000000     0.00000000     0.00000000     0.00000000
O       1.85129103     0.60877394     0.95571066    -0.00000000    -1.64107816    -0.83663188
O       1.85129103     2.51498155     3.94825492    -0.00000000     1.64107816     0.83663188
O       0.00000000     0.95307566     3.40769442     0.00000000     1.63957484    -0.83745103
O       0.00000000     2.17067977     1.49627122     0.00000000    -1.63957484     0.83745103
