# total energy = -4983.71791941 eV

CRYSTAL
PRIMVEC
        4.19867552     0.00000000     0.00000000
       -0.00000720     3.10336904     0.00000000
       -2.09936346    -1.55172512     4.76676906
PRIMCOORD
6 1
Ti     -0.00018132     2.32764106     1.19169199    -0.00522680    -0.01129820    11.13206449
Ti      2.09948598    -0.77599713     3.57507636     0.00522680     0.01129820   -11.13206449
O       0.00004379     0.77583491     0.77646760     0.00373607     0.00564280    -3.88229291
O       2.09926072     0.77580896     3.99030075    -0.00373607    -0.00564280     3.88229291
O      -0.00001879    -0.77583193     3.15985197    -0.00149381    -0.00039466     0.07538966
O       2.09932325     2.32747570     1.60691643     0.00149381     0.00039466    -0.07538966
