# total energy = -19517.47923920 eV

CRYSTAL
PRIMVEC
        5.93400000     0.00000000     0.00000000
        0.00000000     9.29699974     0.00000000
        0.00000000     0.00000000     4.64899994
PRIMCOORD
23 1
Ti      4.48663402     7.00173999     2.31044899     0.48684114    -0.43849744    -0.13619164
Ti      4.50378598     2.28081401     2.33884099     1.11684623     0.30426318     0.73503264
Ti      1.48364002     7.11518803     2.32196500    -0.97826886    -0.27092213    -0.61694492
Ti      1.55487199     2.28689399     2.22712199    -1.52394612     0.26511760     1.36622251
Ti      3.02606603     4.35975002     0.07933701     0.73394764     0.91310706    -0.43010561
Ti      2.88350398     9.24981999     4.51067301     0.31482604    -0.59474858     0.75218448
Ti      0.08012601     4.67773602     0.08207402    -0.00737058     0.68936495    -0.13998633
Ti      5.78162601     0.11916500     0.06091899     0.92199768    -0.60103338    -0.88851907
O       4.34084299     5.49253600     0.78659399     0.40322780     1.03064971     0.67451425
O       4.38510100     0.96680599     0.86155703    -0.12283013     0.18855861     0.31695852
O       1.47151398     5.70074899     0.97964499     0.44409319    -1.38637713    -0.78782281
O       1.35661700     1.00422401     0.93540599     0.52581650    -0.90380635    -0.82867457
O       4.43655100     8.29456198     3.76076799    -0.30106832     0.81096403     0.02899743
O       4.53592302     3.62808500     3.73917402    -1.05715419     0.68199899     0.66442550
O       1.41414799     8.49533701     3.70784598    -0.33270267    -0.89196513    -0.26831091
O       1.57717797     3.74348099     3.72278100    -0.63464748     0.40823837     0.25152932
O       3.00265702     1.30289101     3.22793799    -0.20493962     1.01830301    -0.80537857
O       5.86241502     6.17261798     3.25407300     0.61317722    -1.23045330     0.50933727
O       0.05834698     1.46107500     3.19627102    -0.44557260    -0.79316788     0.70983505
O       2.99887298     7.89130102     1.34373900    -0.69375922    -0.16238142     1.05827134
O       3.00699601     3.24127702     1.49215099     0.15455190    -0.20539445    -0.08096844
O       5.88400302     7.75163501     1.44768999     0.21111336     2.34169504    -1.68416087
O       5.90269599     3.45459699     1.52693000     0.37582112    -1.17351362    -0.40024429
