# total energy = -19518.88751956 eV

CRYSTAL
PRIMVEC
        7.60600008     0.00000000     0.00000000
        0.00000000     7.60600008     0.00000000
       -1.89786986    -1.89786986     4.85670466
PRIMCOORD
23 1
Ti      3.84066900     6.61366198     1.23559200    -0.16037339     0.02538065    -0.02300907
Ti      3.79006002     2.82105202     1.16330099     0.29880909     0.34087673     1.11129368
Ti     -0.05213798     6.71215901     1.26410999     0.18630040    -1.00191788    -0.57328731
Ti      0.03927400     2.86594599     1.10043801    -1.04372686     0.94416342     0.09501721
Ti      5.63597224     2.89335525     3.61533680    -1.18562687    -0.43597518     0.74290331
Ti      5.75443820    -1.00021078     3.69583583    -1.65159192     0.62430933    -0.17538967
Ti      1.87846023     2.81963223     3.59277380     1.20727814    -0.14169535     0.86490965
Ti      1.89523525    -0.97396877     3.65792181     1.10026313     0.17651812    -0.52375345
O       3.92286499     4.69394302     0.70481499    -0.75974738     0.47020532     1.36440654
O       4.05910802     0.98798398     0.70941597    -0.36149467    -0.98048310     0.49304572
O       0.09226301     4.72446702     0.74895800     0.39437703     1.97860346     0.80359448
O      -0.14678498     0.97841000     0.80319100     0.31686467    -1.19271052     0.07512663
O       5.43735720     4.76570623     4.02884183     0.98071861     0.31649546     0.80293730
O       5.79302321     1.02937321     4.07577081     0.36735781    -1.12414225    -1.08880731
O       1.85165121     4.67367924     3.98627582    -0.36720406     1.19848830     0.26867344
O       1.74034422     0.94423425     4.05538679    -0.51631473    -0.18529407     0.03419903
O       3.77191024     2.72640623     3.32904080     0.01604909     0.10976892    -1.43276474
O       3.83226222    -0.72065379     3.26531881    -0.43464001    -0.64053685    -0.82102451
O      -0.03992378    -0.91725277     3.30764881     1.05752469    -0.34114078    -0.67703239
O       5.71540799     6.54186602     1.68112601     0.33017013     0.12466744    -0.13455951
O       5.80207701     2.99176100     1.75960903     0.10993501    -0.27274350    -0.76459777
O       1.97778198     6.73707199     1.61233201    -1.03236335    -0.19930016     0.19790945
O       1.80013601     2.69116398     1.69028501     1.14743517     0.20646223    -0.63979098
