# total energy = -39026.66548080 eV

CRYSTAL
PRIMVEC
        5.93200024     0.00000000     0.00000000
        0.00000000     9.29399984     0.00000000
        0.00000000     0.00000000     9.29399984
PRIMCOORD
46 1
Ti      4.41984799     7.23719698     6.88663902    -0.68090242     1.34551483    -0.53563992
Ti      4.47892799     6.56562200     2.35396297    -0.38013183     1.65050717     0.44364042
Ti      4.41979698     1.97836201     7.02540501    -0.98450919     0.30684148    -0.87057817
Ti      4.16197002     2.76634303     2.13122798    -0.02031815    -1.43160054     2.17610539
Ti      1.40340902     6.78872800     7.06271798     0.40747115     2.48838552     1.59187572
Ti      1.60556198     7.03236501     1.98997999    -0.17490887     0.52608544    -0.01920358
Ti      1.49359998     2.53082200     6.80342198    -4.35874113    -3.19424488     2.26681446
Ti      1.23702802     1.83753101     3.02974000     1.53307302     0.25605549    -0.19277753
Ti      2.98627602     4.65505902     4.98083599     1.63193660     0.01433391    -1.84828036
Ti      2.98648801     4.84696600     8.78424202    -0.09559211    -2.70519491     2.54114767
Ti      3.01472099     9.19784299     4.49212101     0.80707498    -0.41169522     1.84923810
Ti      2.93434601     0.23659298     0.11972799    -0.65007796    -2.17709295    -0.92150865
Ti      0.10460802     4.66742801     4.62244001    -1.22908136    -0.21597429    -0.63109165
Ti      0.01003902     4.74456697     0.25992599     1.54044566    -0.67924997    -2.29319964
Ti      0.01893698     9.00407198     4.74761699    -0.08515651     1.24226649    -0.19599501
Ti      0.04050503     0.12231398     9.23793002    -1.26550182    -1.60889694    -0.85933833
O       4.66041298     5.75506099     5.45238700     0.00845739     0.11622599     0.33556997
O       4.48196202     5.77228000     0.59046899    -1.37856638     0.08831306     1.34159724
O       4.25935700     1.02627498     5.36610201     2.65167686    -0.43251216     1.31299988
O       4.36715601     1.07339499     0.80810499     1.13073997     1.57889344     1.61021103
O       1.53416698     5.61639702     5.56720201    -1.07922635     0.39467142    -0.76295638
O       1.63899202     5.85181602     0.48960500    -0.08121295    -1.38624858     0.58761248
O       1.51443501     0.89974801     5.80129002    -1.28251790     0.36247554    -2.89666246
O       1.18405299     0.67489600     1.18026302     2.00045964     1.94822766     0.82070106
O       4.39446997     8.76692998     8.25455401     0.99238885    -2.03243312    -0.24317246
O       4.48840899     7.99085302     3.99511700     0.15568344     1.23282514    -1.12791818
O       4.54704500     3.83010598     8.44501601    -0.27481581    -1.36346165     0.64877904
O       4.27335702     4.13472798     3.74091300     1.44676080    -1.93532457    -1.66048846
O       1.74621301     8.20595500     8.29768502    -1.81136856     1.19097476     1.24668982
O       1.50373399     8.41109400     3.71246501    -1.17800740     0.75339881    -0.60797459
O       1.51158502     3.59840302     8.58150501     0.54906623     1.10343458     0.00205071
O       1.82093702     3.73822499     3.85626602    -2.13643145    -0.73022545     0.19449528
O       3.24781601     5.87518698     7.42942602    -1.33853146     1.24293704    -1.15671660
O       2.68167901     5.91723202     2.97523199     2.39506550     1.07450889     0.33973284
O       2.86806799     1.39423298     7.91287902     0.19831595     1.35897045    -0.39770070
O       3.16103999     1.63442299     3.31727602    -1.01645876    -0.69956041    -1.56709876
O       0.11417100     5.81109398     7.89676801    -0.58562167     1.26318782    -0.86291242
O       0.07379800     5.78156901     2.95280900     0.24195787    -0.06957151    -0.38523856
O       0.00367201     1.61895202     7.86884200     0.59681086    -1.47711500     1.16760343
O       2.84253899     8.24066199     6.07373402     1.97619279    -2.78004566     0.33662566
O       2.99385897     7.97206501     1.23294198     0.86475616    -0.40318923     1.63882253
O       2.90443998     3.10283800     6.12405698     4.81278063     3.02296564    -1.41632664
O       0.13154801     7.98243302     6.23237702    -0.35479077    -0.73612768     0.25171701
O       0.01753498     7.79860002     1.47470201    -2.15163336     0.34495167    -0.53896076
O       0.02170600     3.18658898     5.79217500    -0.54527256     0.15683864     0.57077329
O       0.04775798     2.83277297     2.12684698    -0.80173763     1.40597409    -1.28306271
