# total energy = -19073.86455331 eV

CRYSTAL
PRIMVEC
        5.17600016     0.00000000     0.00000000
        0.00000000     5.50899976     0.00000000
        0.00000000     0.00000000     9.26300011
PRIMCOORD
22 1
Ti      1.87014500     3.41261101     3.30173001    -1.44885419    -0.81354182    -0.18828504
Ti      3.66158499     2.32269601     5.90018701    -0.42228791    -0.59059444    -0.77608032
Ti      4.15486598     2.25396901     1.22078699     1.43269455    -0.27459418     0.50871737
Ti      0.80031598     3.18217601     8.05715502     0.43001511    -0.09143180     0.39303646
Ti      1.65645598     0.44540701     1.26885698     0.23349148     1.12530311    -0.67746742
Ti      3.28548798     4.99991198     8.09287199    -0.31945969     0.87983543     0.58094535
Ti      1.30422602     0.22400099     6.06501900    -0.14224762    -0.71901055    -1.13201112
Ti      4.29783602     5.01287000     3.45979600     0.60340805     0.27240514     0.71855367
O       3.45963597     3.41926203     4.36129897    -0.18498760     0.26773961     1.56532958
O       0.97924202     1.97856802     0.32907797    -1.10525981     0.20313574    -1.41790401
O       4.22490200     3.55456598     8.78041802     0.30154629    -0.79775473     0.92824186
O       3.36582301     0.87233002     0.25061702     0.40836564    -0.96329115    -1.24915139
O       1.67557102     4.58867802     9.00810299    -0.52443093     1.11594917     1.50668167
O       3.44381701     0.86176002     4.69982202     1.19155018    -0.72284895     0.17071643
O       1.04563303     4.87815401     4.24512001    -1.35323277     0.72057250     2.08192842
O       5.12320002     3.26709801     2.55348100     1.04450642     0.44834399    -0.29866562
O       0.28437297     2.20467001     6.50208803    -0.53961485    -1.70007009    -0.97729261
O       2.65191898     1.84811302     2.35624500    -0.53981874     0.35387854    -0.04777343
O       2.21752298     3.97701601     6.75648999     0.29076308     0.14997327    -0.42955282
O       5.11344199     0.62040201     2.07495898     0.14146575    -0.49186430     0.63479429
O       2.64319300     1.10481399     7.09377497     0.08787957     0.47000246    -0.34559445
O       2.74709500     4.58185301     2.29991800     0.41450801     1.15786280    -1.54916711
