# total energy = -19072.28712718 eV

CRYSTAL
PRIMVEC
        5.93400000     0.00000000     0.00000000
        0.00000000     9.29699974     0.00000000
        0.00000000     0.00000000     4.64899994
PRIMCOORD
22 1
Ti      4.36876201     6.79788800     2.46623200    -0.15463829    -0.17392748    -0.67905945
Ti      4.41072402     2.36754002     2.22815198     0.79832449     0.22822329    -0.28898413
Ti      1.42009700     7.34928202     2.46920100     0.90052099    -2.50384275    -2.04061026
Ti      1.61870802     2.32336700     2.15244598    -1.84424475     0.23063447    -0.30633960
Ti      3.01420902     4.52866901     4.47868202     0.25724308     0.82556893     1.14573979
Ti      3.02836599     0.03008500     4.63095198     1.04709475    -0.11642756     0.80124089
Ti      5.82586099     4.53329899     4.42995602     1.40916200     0.87663415     2.02845485
Ti      0.03053998     9.20022900     0.26412898    -1.45372412     0.47149447     0.49500156
O       4.44921998     5.45955900     0.95895803     0.34723301     0.25185456     0.02704853
O       4.36299800     0.94641801     0.96270402     1.24688908    -0.16892154    -0.39767190
O       1.57261001     0.52102998     1.28535101    -0.52070900     1.50382131    -1.63183453
O       4.50858800     8.18932503     4.16461300    -0.54092791     0.90930208    -1.97860911
O       4.47307798     4.18302202     3.36403201    -0.63836350    -2.80710011    -1.52108165
O       1.47701499     8.45772299     3.70772798    -0.09439192     3.29608940     3.50907092
O       1.74599398     3.76359999     3.44459300    -2.47366441     0.15037719     0.23756514
O       2.89749400     6.06475801     3.35953601    -0.98118244     1.48861632    -0.58635932
O       2.87286900     1.54040899     3.18304302     1.47273589    -1.42304622     1.99964691
O       0.09209600     6.31459000     3.44619598     0.30970106    -1.84966721    -0.33770656
O       3.02201703     7.91095498     1.51259401     0.16684537    -1.38350341     0.60681708
O       2.94110402     2.95396298     1.03541498    -0.00890373     1.42062784    -0.22990684
O       5.81486601     8.03309698     1.65990902    -0.44041677    -1.15318725     0.13369536
O       5.80235002     3.23928900     1.32047599     1.19541686    -0.07362074    -0.98611690
