# total energy = -19923.72679024 eV

CRYSTAL
PRIMVEC
        5.93400000     0.00000000     0.00000000
        0.00000000     9.29699974     0.00000000
        0.00000000     0.00000000     4.64899994
PRIMCOORD
24 1
Ti      4.32334802     5.43219598     2.17210100     4.23483962    15.04982064     2.25573660
Ti      4.44798302     2.80081400     2.30188802     3.18713835    -5.94050700    -0.56956050
Ti      1.52980899     5.40216798     2.40980800    -1.65942299     6.78096366    -0.02234727
Ti      1.42830798     2.64505698     2.11800601     0.21397860    -1.58648822    -0.26342273
Ti      2.75197602     4.47640598     0.14722500     1.87111588     1.94695085    -2.12194842
Ti      2.97369600     1.51435400     4.38449202     0.01740766    -7.90775312     0.39329074
Ti      0.13380300     4.07349402     0.00647602    -2.01880370     3.77755538     0.79053970
Ti      0.07175501     1.41114602     4.51222498    -0.77397562    -4.46921607    -1.80335546
O       4.41456098     5.50694602     0.29373603     1.69423754    -2.87861459     2.78106588
O       4.34546202     1.31933101     1.02228398     0.70419122    -1.64035260     0.23143254
O       1.32345198     5.57098499     0.44605102    -1.86993574    -2.62614014     0.76124402
O       1.44148999     1.21327500     1.10024502     1.44700968    -0.84762386    -0.20505584
O       4.58031200     0.44973600     3.93206098     0.23568566    -3.01406910     1.15867013
O       4.46458802     2.82724498     4.22388101     0.44496325     5.09905688    -0.72706762
O       1.66626502     0.00924197     3.95319102     0.16379296     2.59862856     0.26308437
O       1.71567398     2.85303401     4.02383502    -1.49099742     3.14180978     0.06145916
O       2.93509998     5.92965498     3.77287499    -0.87899236     0.03643614    -4.89840920
O       3.27733499     1.34233498     2.53997301    -3.34514015     2.38890616     1.03358488
O       5.93351300     5.71663299     3.67418301     0.67784306     1.26294742    -2.36403356
O       5.82286998     1.54988402     2.58151300     2.35016554     2.31329488     1.18253152
O       2.74163098     6.49282002     1.58518199     1.21034932     0.79083049     1.33026536
O       3.32651498     4.11632298     1.90566301    -7.84321095    -5.34282917     0.51222462
O       5.92721399     6.84464901     1.73293399    -0.32073932    -1.12700904     1.80412833
O       5.83374801     4.44702098     2.00486601     1.74849941    -7.80659817    -1.58405776
