# total energy = -19959.93878513 eV

CRYSTAL
PRIMVEC
        7.60600008     0.00000000     0.00000000
        0.00000000     7.60600008     0.00000000
       -1.89786986    -1.89786986     4.85670466
PRIMCOORD
24 1
Ti      3.85633799     6.82343700     1.10171100     1.45006107    -2.57985384    -0.03134330
Ti      3.80616198     2.75724901     1.12748098    -1.28605239     2.08125813     1.65011328
Ti      0.00638299     6.60463400     1.22529701    -1.60588129     0.70424933    -1.19590948
Ti     -0.17649702     2.79880800     1.39337699     1.12974212    -0.24791589    -1.38781721
Ti      5.61836424     2.76958625     3.77329081    -0.05257522     0.22171145    -0.39268293
Ti      5.67326723    -0.92778578     3.60614880     0.91823744    -0.41052125     1.14173144
Ti      2.01411423     2.83051725     3.71623979    -0.42385654    -0.00908037    -0.93609299
Ti      2.08589220    -0.94790579     3.51924081    -0.98115133    -0.12243495    -0.21960957
O       4.01779700     4.78352400     0.80943301    -0.99938431     0.01994483    -0.10888960
O       4.06356099     0.96585903     0.61452100    -0.50975661    -0.20153985     0.67857968
O       7.25015701     4.64267898     0.83927501     1.15151706     2.15282481     0.20322213
O      -0.06316201     1.03785301     0.72628900     0.07193538    -1.91997303     0.84411405
O       5.40100924     4.77371025     3.98925181     1.00771366    -0.20139613     1.15441289
O       5.78367625     0.93636322     4.16025184    -0.11948075     0.54063738    -0.88967299
O       2.20090422     4.74118220     3.94047680    -1.08830878     1.21325030     0.55678185
O       1.76642721     0.90720523     4.05939780    -0.05576802    -0.01989238    -0.19095230
O       3.75859122     2.68252225     3.20696082     0.26746399    -0.46817620     0.43961175
O       3.85735522    -0.79009878     3.09589880    -1.06033979     0.37359351    -0.06873435
O      -0.12349780     2.92933724     3.20645683     0.64535947     0.09764308     2.09239538
O      -0.14044576    -0.99114476     3.06583280     2.82833023    -0.59451409     1.56573299
O       5.76707300     6.88862502     1.65187700    -2.01517253    -0.23143408    -1.26478525
O       5.56519198     2.90138202     1.78497598     0.05028437    -0.81212617    -1.13367077
O       1.93359499     6.72559202     1.62491701     0.15385796    -0.04991439    -1.20595145
O       1.86850698     2.69117700     1.78524401     0.52322586     0.46366032    -1.30058350
