# total energy = -19921.20946317 eV

CRYSTAL
PRIMVEC
        5.95211562     0.00000000     0.00000000
        0.00002246     3.80091043     0.00000000
        0.00000000     0.00000000     9.09054120
PRIMCOORD
24 1
Ti      2.15736877     2.25241598     3.37252596    -0.84274674     3.19248264    -4.60014621
Ti      3.79476892     1.54849439     5.71801533     0.84274674    -3.19248264     4.60014621
Ti      5.13332418     1.54849567     1.17270837    -0.83955523    -3.19282100     4.60321945
Ti      0.81881357     2.25241485     7.91783298     0.83955523     3.19282100    -4.60321945
Ti      2.15735774     0.35196082     1.17274483    -0.84274674     3.19248264     4.60014621
Ti      3.79477996     3.44894966     7.91779656     0.84274674    -3.19248264    -4.60014621
Ti      0.81880248     0.35195944     5.71797887     0.83955523     3.19282100     4.60321945
Ti      5.13333521     3.44895103     3.37256238    -0.83955523    -3.19282100    -4.60321945
O       1.88388997     1.33836514     4.63883361     3.14773103    -3.26196236     4.91061474
O       4.06824777     2.46254519     4.45170769    -3.14773103     3.26196236    -4.91061474
O       1.09221825     1.33838049     0.09359222    -3.14727672    -3.26278897     4.91105569
O       4.85991954     2.46252989     8.99694878     3.14727672     3.26278897    -4.91105569
O       4.06823673     0.56208993     0.09356272    -3.14773103     3.26196236     4.91061474
O       1.88390101     3.23882040     8.99697829     3.14773103    -3.26196236    -4.91061474
O       4.85990846     0.56207463     4.63886306     3.14727672     3.26278897     4.91105569
O       1.09222918     3.23883575     4.45167818    -3.14727672    -3.26278897    -4.91105569
O       0.21626771     2.31192919     2.45558197     3.43992005    -0.66817262     2.57751311
O       5.73587004     1.48898114     6.63495928    -3.43992005     0.66817262    -2.57751311
O       3.19233237     1.48894581     2.08971755     3.44103462     0.66840685    -2.57776225
O       2.75980532     2.31196457     7.00082355    -3.44103462    -0.66840685     2.57776225
O       0.21625662     0.41147393     2.08968853     3.43992005    -0.66817262    -2.57751311
O       5.73588107     3.38943640     7.00085257    -3.43992005     0.66817262     2.57751311
O       2.75979429     0.41150931     6.63498825    -3.44103462    -0.66840685    -2.57776225
O       3.19234341     3.38940102     2.45555295     3.44103462     0.66840685     2.57776225
