# total energy = -4901.79531154 eV

CRYSTAL
PRIMVEC
        4.92507684     0.00000000     0.00000000
       -0.00000643     2.11074736     0.00000000
       -2.46256667    -1.05545004     5.34480725
PRIMCOORD
6 1
Ti     -0.00021044     1.58312606     1.33620176    -0.05055151    -0.03995316    87.68125883
Ti      2.46271394    -0.52782869     4.00860539     0.05055151     0.03995316   -87.68125883
O       0.00005233     0.52767390     0.87062542     0.04984625     0.04100448   -78.93820540
O       2.46245102     0.52762341     4.47418178    -0.04984625    -0.04100448    78.93820540
O      -0.00002059    -0.52771211     3.54302905    -0.00037641    -0.00022523     0.51850120
O       2.46252389     1.58300938     1.80177816     0.00037641     0.00022523    -0.51850120
