# total energy = -19515.16152935 eV

CRYSTAL
PRIMVEC
        5.17600016     0.00000000     0.00000000
        0.00000000     5.50899976     0.00000000
        0.00000000     0.00000000     9.26300011
PRIMCOORD
23 1
Ti      1.93641201     3.22719900     3.42389598     0.23410417    -0.56044876     2.94495011
Ti      3.22891199     2.27534602     5.87183300     1.75856400     0.02986646    -3.33582453
Ti      4.28197499     2.28376502     1.47551202     1.67324165    -0.65442030    -0.85193792
Ti      0.82581899     3.38940399     7.76047899     0.87131222    -1.25405218     2.23598152
Ti      2.00531602     0.23802901     1.47776801    -0.72868922    -1.03322339    -1.28071684
Ti      3.32300098     5.20060600     7.89878401    -1.33739863    -0.56658264     1.34432158
Ti      0.65317300     0.60149001     5.84035098    -0.68120709    -0.40096651    -2.66953112
Ti      4.59828899     4.97098102     3.23244902     0.15643986     2.15674446     4.06312329
O       1.59633800     1.81128599     4.67339697     1.26921346     1.25004871     0.43711418
O       3.57032001     3.66251100     4.46452600    -1.71498404    -1.53859755     1.24469001
O       5.12671598     2.44882699     9.06640801    -0.45053689     0.45083899     1.51437981
O       3.38800199     0.62356300     0.29876998     0.86436021     0.94135346    -1.13578216
O       1.72782003     4.41163802     9.25407701     0.40972215     0.77769446    -0.60971240
O       4.31555298     0.76047899     4.78445699    -1.49765658     0.60504019    -0.17799368
O       0.86608700     4.68692603     4.67606599     1.37762792    -1.04454319    -1.66694296
O       0.14030600     3.36941998     2.71900802     1.08459276    -1.50965695    -2.18683512
O       5.03666297     2.28987199     6.59235799    -0.91267563    -1.08112434    -0.31654611
O       2.95004299     1.56093901     2.55218901    -1.33379394     1.18067081    -0.35652858
O       2.51046000     3.60881797     6.93475398     0.75812116     0.08790914     0.86684030
O       0.27530298     0.86485899     2.10704898     0.22859790    -0.83005011    -0.43799556
O       5.08926499     4.70725702     7.09979902    -2.47981963     3.15690679     0.77771246
O       2.32040499     0.81414899     6.83888199     0.81565553     0.19004573     1.38207053
O       2.99457098     4.42292098     2.35854602    -0.36479108    -0.35345328    -1.78483682
