# total energy = -19903.87175303 eV

CRYSTAL
PRIMVEC
        7.01055697     0.00000000     0.00000000
        0.00003489     6.75074743     0.00000000
        0.00000000     0.00000000    11.97981139
PRIMCOORD
24 1
Ti      2.54101043     4.00048661     4.44442469     0.23400981    -0.94672450     0.80335536
Ti      4.46958143     2.75026068     7.53538711    -0.23400981     0.94672450    -0.80335536
Ti      6.04616674     2.75026300     1.54543336     0.23397922     0.94663143    -0.80353046
Ti      0.96442520     4.00048463    10.43437865    -0.23397922    -0.94663143     0.80353046
Ti      2.54099305     0.62511304     1.54548142     0.23400981    -0.94672450    -0.80335536
Ti      4.46959888     6.12563446    10.43433059    -0.23400981     0.94672450     0.80335536
Ti      0.96440775     0.62511058     7.53533912    -0.23397922    -0.94663143    -0.80353046
Ti      6.04618411     6.12563699     4.44447275     0.23397922     0.94663143     0.80353046
O       2.21889785     2.37705285     6.11320621     1.14189984     1.37630535    -0.47895093
O       4.79169408     4.37369445     5.86660559    -1.14189984    -1.37630535     0.47895093
O       1.28644629     2.37708015     0.12333888    -1.14174069     1.37669410    -0.47971969
O       5.72414571     4.37366721    11.85647265     1.14174069    -1.37669410     0.47971969
O       4.79167663     0.99832066     0.12330004    -1.14189984    -1.37630535    -0.47895093
O       2.21891530     5.75242663    11.85651149     1.14189984     1.37630535     0.47895093
O       5.72412827     0.99829343     6.11324512     1.14174069    -1.37669410    -0.47971969
O       1.28646353     5.75245393     5.86656675    -1.14174069     1.37669410     0.47971969
O       0.25473109     4.10618729     3.23604601    -0.18516475    -0.11244235     0.10442539
O       6.75586084     2.64456007     8.74376579     0.18516475     0.11244235    -0.10442539
O       3.76001578     2.64449724     2.75389798    -0.18526142     0.11259662    -0.10435109
O       3.25057608     4.10625012     9.22591368     0.18526142    -0.11259662     0.10435109
O       0.25471364     0.73081351     2.75385969    -0.18516475    -0.11244235    -0.10442539
O       6.75587822     6.01993386     9.22595191     0.18516475     0.11244235     0.10442539
O       3.25055870     0.73087634     8.74380402     0.18526142    -0.11259662    -0.10435109
O       3.76003323     6.01987096     3.23600778    -0.18526142     0.11259662     0.10435109
