# total energy = -4990.43870417 eV

CRYSTAL
PRIMVEC
        2.98164674     0.00000000     0.00000000
        0.00000000     4.67179343     0.00000000
        0.00000000    -0.00006063     4.67179343
PRIMCOORD
6 1
Ti      1.49082331     2.33586635     2.33589666     0.00000000     0.00000000     0.00000000
Ti      0.00000000     0.00000000     0.00000000     0.00000000     0.00000000     0.00000000
O       1.49082331     0.91045190     0.91046372     0.00000000    -0.05774931    -0.05774931
O       1.49082331     3.76128079     3.76132960     0.00000000     0.05774931     0.05774931
O       0.00000000     1.42538987     3.24636133     0.00000000     0.05791798    -0.05791798
O       0.00000000     3.24634283     1.42543200     0.00000000    -0.05791798     0.05791798
