# total energy = -19074.73885315 eV

CRYSTAL
PRIMVEC
        5.17600016     0.00000000     0.00000000
        0.00000000     5.50899976     0.00000000
        0.00000000     0.00000000     9.26300011
PRIMCOORD
22 1
Ti      1.96608700     3.41383002     3.32535201    -0.33174468     1.22025347    -0.92541236
Ti      3.51445398     2.20575403     6.01551500     0.04236408     0.46017313    -0.48433019
Ti      4.44449702     2.25654800     1.28870398     0.78183034     0.59963496    -1.23729963
Ti      0.66946500     3.19938502     8.07106301     0.27321169     1.44799956     1.47303157
Ti      1.89188498     0.54547602     1.24808100    -0.36900306    -0.40971187    -2.02342526
Ti      3.18471702     5.06002901     7.92766899     0.27854056    -0.48778627     1.92220449
Ti      0.54677800     0.09580701     6.03550699     0.57119880     2.38056139    -0.79246725
Ti      4.45951300     4.99636898     3.45709598     0.39822392    -0.14729778    -0.10710397
O       3.55680699     3.45831599     4.37530402    -0.64079756    -1.04198931     1.60390771
O       0.95682100     2.03667798     0.20098300    -0.63770504    -0.85628000    -0.40945810
O       4.18783203     3.70138901     8.96046101     1.45130214    -1.21922246     0.22031894
O       3.42732399     0.75891601     0.15273500     0.86303686     1.17464183    -0.02441263
O       1.64512301     4.68301202     9.08756298    -1.12217099     0.70662014     0.14206816
O       4.12227702     0.71774999     4.80023002     0.20783186     0.02744217     0.61208502
O       1.05244200     4.88705202     4.32461403    -0.04941739    -0.76928001     1.33717469
O       0.20583302     3.52531899     2.40331902    -0.10063713    -0.70002912    -0.11734134
O       0.12934500     2.14927600     6.58041801    -0.40837052    -1.04437298    -0.24351236
O       2.72415897     2.18025202     2.04755702    -0.40661703    -0.78385354     1.12867305
O       2.44360698     3.57080802     7.09015900    -0.89137197    -1.30247301    -1.80867430
O       0.06394102     0.81545098     2.24530600     0.55368676    -0.33169763    -0.27101443
O       2.37609999     0.81980002     6.74352202    -0.71216833    -0.04105128    -0.59620999
O       2.78944601     4.69394397     2.29151302     0.24877669     1.11771861     0.60119768
