# total energy = -19518.07383038 eV

CRYSTAL
PRIMVEC
        5.93400000     0.00000000     0.00000000
        0.00000000     9.29699974     0.00000000
        0.00000000     0.00000000     4.64899994
PRIMCOORD
23 1
Ti      4.48423299     6.92236700     2.33430298     0.14875817     0.94661651    -0.64210240
Ti      4.43498802     2.32752401     2.31131801     0.26452805    -0.64044687     0.34678641
Ti      1.46406702     7.02269800     2.36196599    -0.04173031     0.71018138    -0.96829478
Ti      1.47248200     2.38840299     2.27696001    -0.19513112    -1.35692462     0.16158412
Ti      2.95840600     4.60477999     0.03155399    -0.16821140    -0.66725423     0.35048057
Ti      2.97840800     9.24260599     4.58578798    -0.60993326     0.36759898     0.76531408
Ti      0.00349199     4.68522398     0.05459400     0.09268985    -0.25616450    -0.29876050
Ti      5.88365799     9.28173399     4.62415301     0.66029425     0.91246197     0.46390380
O       4.40771697     5.52026901     0.93840801     0.25161288     0.68431504     0.22481966
O       4.34387200     0.94732301     0.79363199     0.94438145    -0.01678160     0.30991755
O       1.51947897     5.61465402     0.93771600     0.26999190    -0.29384969    -0.56704441
O       1.48021598     0.89644600     0.94622798    -0.08200099    -0.31960058    -0.82797137
O       4.45851799     8.31650098     3.69685899    -0.03039045     0.05810258     0.80968054
O       4.50398299     3.68233900     3.87880098    -0.47533904     0.45842324    -1.26887279
O       1.44672001     8.37717797     3.67430001     0.11538241     0.21824406     0.86453530
O       1.52424199     3.72492899     3.75102499    -0.03887947     0.69867929    -0.01126298
O       3.07419602     1.39442301     3.11774598    -0.71734345    -0.22279491     0.67591653
O       0.05445102     6.08142900     3.22197702    -0.35651315    -0.83545020     0.68071241
O       0.01277302     1.42539099     3.24885499    -0.29990078     0.10341366    -0.46864080
O       3.02012897     7.96400098     1.54667800    -0.14572221    -1.00281674    -0.57246044
O       2.91795601     3.26826601     1.38913801     0.63150122     0.01088554     0.48807372
O       5.92283098     7.86642800     1.44393998    -0.12313275     0.23941170    -0.70923701
O       0.03935602     3.26061199     1.39649702    -0.09491205     0.20375023     0.19292280
