# total energy = -19904.53366289 eV

CRYSTAL
PRIMVEC
        8.38471912     0.00000000     0.00000000
        0.00002807     4.29668135     0.00000000
        0.00000000     0.00000000    12.66797821
PRIMCOORD
24 1
Ti      3.03907417     2.54620947     4.69972956     0.30533970    -0.36917096     2.78887663
Ti      5.34567321     1.75047207     7.96824877    -0.30533970     0.36917096    -2.78887663
Ti      7.23129021     1.75047360     1.63420899     0.30510290     0.36916581    -2.78959963
Ti      1.15345724     2.54620814    11.03376953    -0.30510290    -0.36916581     2.78959963
Ti      3.03906020     0.39786886     1.63425979     0.30533970    -0.36917096    -2.78887663
Ti      5.34568724     3.89881281    11.03371873    -0.30533970     0.36917096     2.78887663
Ti      1.15344320     0.39786721     7.96819797    -0.30510290    -0.36916581    -2.78959963
Ti      7.23130418     3.89881446     4.69978037     0.30510290     0.36916581     2.78959963
O       2.65382653     1.51293461     6.46437233     1.17508868     1.20051639    -2.21395667
O       5.73092092     2.78374693     6.20360601    -1.17508868    -1.20051639     2.21395667
O       1.53860204     1.51295190     0.13042392    -1.17403299     1.20037318    -2.21413742
O       6.84614546     2.78372964    12.53755403     1.17403299    -1.20037318     2.21413742
O       5.73090688     0.63540626     0.13038284    -1.17508868    -1.20051639    -2.21395667
O       2.65384050     3.66127528    12.53759518     1.17508868     1.20051639     2.21395667
O       6.84613149     0.63538897     6.46441341     1.17403299    -1.20037318    -2.21413742
O       1.53861582     3.66129264     6.20356493    -1.17403299     1.20037318     2.21413742
O       0.30465343     2.61348520     3.42193694    -2.22252359     0.70217573     0.15725310
O       8.08009395     1.68319640     9.24604139     2.22252359    -0.70217573    -0.15725310
O       4.49702348     1.68315629     2.91209249    -2.22358186    -0.70210683    -0.15717725
O       3.88772389     2.61352531     9.75588566     2.22358186     0.70210683     0.15717725
O       0.30463946     0.46514447     2.91205203    -2.22252359     0.70217573    -0.15725310
O       8.08010798     3.83153708     9.75592611     2.22252359    -0.70217573     0.15725310
O       3.88770992     0.46518457     9.24608178     2.22358186     0.70210683    -0.15717725
O       4.49703752     3.83149697     3.42189649    -2.22358186    -0.70210683     0.15717725
