# total energy = -4990.09934895 eV

CRYSTAL
PRIMVEC
        3.82211571     0.00000000     0.00000000
        0.75684665     3.74643186     0.00000000
       -2.28951600    -1.87324442     4.90268963
PRIMCOORD
6 1
Ti      0.56750323     2.80996716     1.22567254     0.00007379    -0.00007379     0.00000000
Ti      1.72194313    -0.93677972     3.67701725    -0.00007379     0.00007379     0.00000000
O       0.18925171     0.93660249     0.79860814    -0.00028899    -0.00017484    -0.43103069
O       2.10019454     0.93658486     4.10408171     0.00028899     0.00017484     0.43103069
O      -0.18922662    -0.93658196     3.24995285    -0.00017484    -0.00028899    -0.43103069
O       2.47867276     2.80976922     1.65273694     0.00017484     0.00028899     0.43103069
