# total energy = -19070.48013905 eV

CRYSTAL
PRIMVEC
        5.17600016     0.00000000     0.00000000
        0.00000000     5.50899976     0.00000000
        0.00000000     0.00000000     9.26300011
PRIMCOORD
22 1
Ti      1.37093903     3.08518602     3.65183500     1.60439159     0.24493341    -0.46236294
Ti      4.07246302     3.16892298     6.04566799     0.27823306     0.05062093    -1.22621612
Ti      4.15913400     2.14256301     1.34495399     0.66384546    -0.18671795     2.33423292
Ti      1.36480703     2.83339301     8.08378099    -0.93882607     1.38745725    -0.44726362
Ti      1.55423698     0.49479200     1.36715202     0.13483770    -1.27556178     2.40283049
Ti      3.35154300     5.35214199     8.11707900     0.13709770    -2.11767911    -0.48476600
Ti      1.57945502     0.26782999     5.67925799    -0.10800566    -0.23145516    -0.38965520
Ti      4.10567001     4.76739902     3.42226998    -1.01288030     1.58070118    -1.45393727
O       3.25955601     3.27890501     4.17965999    -0.38238900    -3.18033829     3.31506775
O       0.66892698     1.81142199     0.39105400    -0.40045564     0.95242387    -2.54295130
O       4.99843701     4.08924001     7.71280298    -1.25062232    -0.24917933    -0.93963005
O       3.17967099     0.81985601     0.48453702     1.32989949     0.04664420    -1.62502033
O       2.02937999     4.38490001     8.96584702    -0.04152590    -0.66963532     2.38434940
O       3.10070902     5.49544901     4.79849299    -1.37671467     3.54943751     1.70489631
O       0.33615800     4.50957100     4.61910000     2.33164948    -0.09774052     2.97043464
O       5.17147802     3.56965499     2.38779899    -0.21300363    -1.73970032    -1.57017920
O       0.21875002     1.81520000     5.42872098     1.32809072     0.19893764     0.29881629
O       2.33416000     2.06861102     2.31049403    -0.10868623    -1.07644776    -0.32851794
O       2.38220998     4.19060401     6.68684799     0.44895412    -1.69594270    -0.19637862
O       4.96263198     0.66933699     2.37842298     0.48294463     1.07014110    -0.34835710
O       2.30840198     1.12880202     7.30793999    -0.49693400     2.37650547    -0.82261062
O       2.44719300     4.66107498     2.62572301    -2.40990026     1.06259594    -2.57278176
