# total energy = -4982.88180968 eV

CRYSTAL
PRIMVEC
        2.72080997     0.00000000     0.00000000
        1.04937893     4.13192893     0.00000000
       -0.00000675    -0.00005587     4.29732670
PRIMCOORD
6 1
Ti      1.88509097     2.06593645     2.14866340     0.00000000     0.00000000     0.00000000
Ti      0.00000000     0.00000000     0.00000000     0.00000000     0.00000000     0.00000000
O       1.56491209     0.80524115     0.83748570    -5.79758807     2.69329918     3.15214691
O       2.20526980     3.32663175     3.45984109     5.79758807    -2.69329918    -3.15214691
O       0.32017601     1.26067268     2.98614996     5.79643056    -2.69184291     3.15046617
O       0.72919606     2.87120029     1.31117683    -5.79643056     2.69184291    -3.15046617
