# total energy = -19960.06495648 eV

CRYSTAL
PRIMVEC
        5.93400000     0.00000000     0.00000000
        0.00000000     9.29699974     0.00000000
        0.00000000     0.00000000     4.64899994
PRIMCOORD
24 1
Ti      4.39818300     6.80549900     2.34439799     0.08859253     2.66326997     0.73863116
Ti      4.45287998     2.42547599     2.41309001     0.34251889    -2.72076500    -1.24312498
Ti      1.46665798     7.01501498     2.25043601     0.47135023     1.90850744    -0.04094920
Ti      1.47178402     2.35012300     2.33969101    -0.55776350    -2.03099407    -0.22237068
Ti      2.96968102     4.63722998     4.64780602    -1.82189697    -1.27003879    -0.22996161
Ti      2.99787300     0.01686398     4.57205202     0.14102815     1.23383610     0.73691932
Ti      5.91079198     4.73263498     0.03008198     1.99159062    -1.68947714    -0.39259551
Ti      0.02137299     9.19420198     0.01309301    -0.51565627     1.68565828     0.33564273
O       4.47028001     5.53588800     0.85030598    -0.52924738     0.42068508     0.41999757
O       4.42997401     0.88921199     0.83189902     0.40839649     0.17419308    -0.00022986
O       1.49910200     5.65474899     0.82178999     0.02404985    -1.18561324    -0.38192080
O       1.60005399     0.91823699     0.84883201    -1.35780008     0.09759654     0.07593216
O       4.37504499     8.30533401     3.77296701     1.28780846    -0.98195711    -0.83494266
O       4.55359998     3.67663902     3.73479698    -0.64422022     2.02740276     1.94299006
O       1.41832801     8.37318798     3.76704901     0.40593620    -0.84306273    -0.70436426
O       1.46517697     3.67830800     3.70329199     0.52538096     1.88251178     2.28920800
O       2.94111101     6.03023300     3.29623001     0.63253146    -0.12258227    -0.76856961
O       3.02661002     1.44058198     3.18309800    -0.13435716    -0.63828097     0.46712205
O       0.05149000     6.10350902     3.11458299    -1.29098249    -1.75860925     1.39572644
O       0.04126201     1.39251998     3.15088301    -0.65293780    -0.49964369     0.67230696
O       2.90269697     7.90113599     1.34909300     0.77402781    -1.54768126     1.43121410
O       2.90556998     3.25582902     1.59487699     1.50751162     2.22518597    -2.66979980
O       0.01947801     7.97024898     1.56896001    -0.68597135    -0.33938549    -1.09379474
O       0.03108101     3.28529001     1.53307401    -0.40989056     1.30924350    -1.92306658
