# total energy = -19961.10122781 eV

CRYSTAL
PRIMVEC
        7.60600008     0.00000000     0.00000000
        0.00000000     7.60600008     0.00000000
       -1.89786986    -1.89786986     4.85670466
PRIMCOORD
24 1
Ti      3.79277099     6.78057602     1.12426998     1.78265138    -0.25875900    -0.26203253
Ti      3.81155499     2.84463602     1.19145300    -0.19769528     0.48555687    -0.22933477
Ti     -0.03576402     6.63983302     1.22167903    -1.22003724    -0.65751077     0.49255490
Ti     -0.07220698     2.75637401     1.30871302    -0.04349460     0.55112697    -0.68173983
Ti      5.62364723     2.82490723     3.71078482    -0.05302491    -0.35784653     0.32394215
Ti      5.66137222    -0.95233379     3.65076681     0.71127410     0.23994315    -0.29166399
Ti      1.92734324     2.82420321     3.63092583     0.59248446    -0.00018101     0.27127822
Ti      1.96619824    -0.93104879     3.45183680    -0.79240400     0.25630771     1.80794822
O       3.99956002     4.75378799     0.88921702    -0.81940805     1.21125152    -1.25846573
O       3.96449002     1.03444098     0.72205601    -0.85351555    -1.19855849    -0.27221488
O      -0.23686598     4.73366502     0.84476898     0.63830102    -0.24402452     0.35154732
O      -0.08262701     0.86252002     0.77923499     0.27438206     1.40970836     0.63830308
O       5.53662721     4.70536621     4.11873381     0.49616396     0.21131493    -0.68183830
O       5.81457824     0.91399521     4.20752980     0.04577517    -0.17989321    -0.28874579
O       2.19101120     4.89322620     3.93998281    -1.08844762    -2.04275070     1.02526710
O       1.87498221     1.00214524     4.01093283    -0.25881325    -0.29393274     0.25829852
O       3.85871823     2.54635420     3.31225879    -1.04980804     0.75873180    -0.45601617
O       3.80660924    -0.92955980     3.16977480     0.31880200     0.61613373    -0.38127751
O       0.04131721     2.86229921     3.22329679    -0.30928608     0.24511030     0.42371770
O       0.00834020    -1.01471680     3.21451980    -0.06748711    -0.26628617    -0.01717060
O       5.67458398    -0.66927799     1.73896900     0.16503197    -0.81924145    -0.54687050
O       5.60244098     2.80965798     1.71804702     2.33847216    -0.07583909    -0.01887499
O       1.90508202     6.69613701     1.55313502     0.25477251     0.09281197    -0.74931976
O       1.96751901     2.78454302     1.63427599    -0.86468880     0.31682585     0.54270789
