# total energy = -19517.01920565 eV

CRYSTAL
PRIMVEC
        7.60600008     0.00000000     0.00000000
        0.00000000     7.60600008     0.00000000
       -1.89786986    -1.89786986     4.85670466
PRIMCOORD
23 1
Ti      3.80862498     6.79576399     1.25183102     0.45022887     0.49620355    -1.23455935
Ti      3.78460198     2.93264999     1.21368702     0.89970929    -0.52870822     1.20420181
Ti      0.03344199     6.55868099     1.05224801    -0.13566019     1.27041982     1.57521985
Ti     -0.06440098     2.75668999     1.12908401    -1.00519192    -1.12996658     1.49727323
Ti      5.71526321     2.69308823     3.78373481    -1.78749869     0.03164206    -1.79570205
Ti      5.72077925    -1.07779880     3.53521783     0.40204921     0.58322746    -0.33348712
Ti      2.07082023     2.87400525     3.78234080     1.55237019     1.02070648     1.64453116
Ti      1.91951422    -0.82241479     3.62469382    -0.59622490    -1.42913074     0.07131369
O       3.94721799     4.90271599     0.97264901    -0.53903661    -1.89757742    -0.18660431
O       3.71452801     1.07531601     0.76936599    -0.72763763     0.25971031    -0.27915454
O      -0.17260799     4.64139498     0.79168002     0.91375009     0.45413361     0.90259818
O       0.18590500     0.83801700     0.58045601     0.05309201     0.15330620     0.92435641
O       5.42935620     4.61142624     4.01885181     0.84717623     0.88371085    -1.61845065
O       5.76110324     0.86174621     4.17339882     1.02331615    -0.02385008    -2.38869045
O       1.93000421     4.89421020     4.08408979     0.31083158    -0.55073873    -0.32190403
O       1.65992923     1.01537922     4.11119584    -0.70286839     1.05367652     0.26850092
O       3.86126621     2.50983721     3.57215483    -0.90587814     0.83388620    -1.88130054
O       3.72953622    -0.53730176     3.18089583     0.98878082    -0.96360149     0.49334629
O       0.00493225    -1.03614980     2.99295080    -0.22172096    -0.06184251     1.04957741
O       5.72477702     6.90018601     1.49739900     0.39168791    -0.64642108     0.94861015
O       5.59747597     2.57633098     1.36360802     1.54690968     0.99016151     1.34083568
O       1.99296497     6.67642801     1.41611102    -2.25774257    -0.46109153     0.79458430
O       1.62474799     3.04117001     2.09100601    -0.50044253    -0.33785619    -2.67509602
