# total energy = -19073.56039317 eV

CRYSTAL
PRIMVEC
        5.93400000     0.00000000     0.00000000
        0.00000000     9.29699974     0.00000000
        0.00000000     0.00000000     4.64899994
PRIMCOORD
22 1
Ti      4.46588599     7.00233399     2.37092501    -1.97834223     0.14363010    -0.65566857
Ti      4.48418801     2.45487501     2.13681303     0.58263250    -2.13653378     1.08442615
Ti      1.41552300     7.09771999     2.67008600     2.27464090    -1.33386336    -1.25090977
Ti      1.62725799     2.39129399     2.16461102    -0.26925348     0.04240291     0.90172452
Ti      3.07720900     4.49188500     4.41721698    -1.11310605     0.25188644    -0.81385061
Ti      2.95059201     9.22946302     4.60711303     1.18601896     0.61935533     0.59704997
Ti      5.77604202     4.65849100     4.55159799     1.02779733    -0.71666956     0.24580167
Ti      5.92261602     9.19735498     0.28013300    -1.50336263     0.85935787     0.78974445
O       4.32869298     5.39294701     0.91033500     0.53519358     1.03386308     0.41178006
O       4.32417301     0.55788099     1.11945198     0.01796662     2.24727612    -0.38280346
O       1.53676301     0.80402900     1.00981302    -0.04799043     1.26105638    -0.15895671
O       4.50432098     8.33323499     3.78316902    -0.31880431     0.70207957     0.42876298
O       4.53626799     3.95883999     3.34309400    -0.25434185    -1.05148080     0.39488534
O       1.32317998     8.29624100     3.93349700     0.88250860     1.12248286     0.62272682
O       1.45560299     3.98907400     3.55592703     0.23244787    -0.96099104    -0.08411650
O       3.01466099     6.11311100     3.32498402    -0.65177721    -0.39451844     0.36352584
O       3.03716700     1.64633800     3.31713500    -0.35801391    -0.90596890     0.37551258
O       5.86432202     6.11005600     3.29776002     0.26314968    -0.23533136    -0.13313229
O       2.83180701     7.76204599     1.54462902     0.06940001     0.27474202    -1.09111179
O       3.10720001     3.05216902     1.21373099    -1.56946314     1.53112490    -2.07583619
O       0.04919200     8.11894599     1.70435599     0.06019829    -1.94462374    -0.17232748
O       5.91536201     3.15542298     1.11166202     0.93250141    -0.40927607     0.60277299
