# total energy = -4985.36762881 eV

CRYSTAL
PRIMVEC
        4.30801603     0.00000000     0.00000000
       -0.00000739     3.18418594     0.00000000
       -2.15403438    -1.59213462     4.89090367
PRIMCOORD
6 1
Ti     -0.00018604     2.38825671     1.22272563    -0.00480102    -0.00972983     9.44253284
Ti      2.15416010    -0.79620539     3.66817731     0.00480102     0.00972983    -9.44253284
O       0.00004493     0.79603895     0.79668811     0.00267421     0.00381038    -3.18432453
O       2.15392896     0.79601232     4.09421484    -0.00267421    -0.00381038     3.18432453
O      -0.00001928    -0.79603589     3.24213979    -0.00158303    -0.00016095    -0.60237473
O       2.15399313     2.38808705     1.64876321     0.00158303     0.00016095     0.60237473
