# total energy = -4988.05107233 eV

CRYSTAL
PRIMVEC
        3.36436548     0.00000000     0.00000000
        0.00000000     4.76941319     0.00000000
        0.00000000    -0.00006524     5.03301712
PRIMCOORD
6 1
Ti      1.68218274     2.38467380     2.51650856     0.00000000     0.00000000     0.00000000
Ti      0.00000000     0.00000000     0.00000000     0.00000000     0.00000000     0.00000000
O       1.68218274     0.92947560     0.98086090     0.00000000    -0.18173207    -0.25130383
O       1.68218274     3.83987195     4.05215617     0.00000000     0.18173207     0.25130383
O       0.00000000     1.45517177     3.49737048    -0.00000000     0.18164234    -0.25106215
O       0.00000000     3.31417584     1.53564659    -0.00000000    -0.18164234     0.25106215
