# total energy = -19918.41004807 eV

CRYSTAL
PRIMVEC
        4.90824581     0.00000000     0.00000000
        2.45830694     4.60927561     0.00000000
        0.00000000     0.00000000     9.09054120
PRIMCOORD
24 1
Ti      3.23579347     2.73145246     3.37252596     5.97332303    -5.50231193     1.25801810
Ti      4.13075941     1.87782327     5.71801533    -5.97332303     5.50231193    -1.25801810
Ti      5.23456251     1.87782491     1.17270837   -12.53371244     3.75226600     2.64196477
Ti      2.13199052     2.73145103     7.91783298    12.53371244    -3.75226600    -2.64196477
Ti      2.00664019     0.42681481     1.17274483     5.97385191    -5.50163933    -1.25833898
Ti      5.35991278     4.18246109     7.91779656    -5.97385191     5.50163933     1.25833898
Ti      0.90283700     0.42681304     5.71797887    12.53321210    -3.75161988     2.64217406
Ti      6.46371596     4.18246282     3.37256238   -12.53321210     3.75161988    -2.64217406
O       2.41910250     1.62300433     4.63883361    -1.81838305    -0.04084276    -1.55058070
O       4.94745044     2.98627143     4.45170769     1.81838305     0.04084276     1.55058070
O       1.76628243     1.62302289     0.09359222     2.70011595     0.59310693    -3.15123159
O       5.60027057     2.98625291     8.99694878    -2.70011595    -0.59310693     3.15123159
O       3.71829706     0.68163360     0.09356272     1.81787551     0.04050183    -1.55064960
O       3.64825587     3.92764211     8.99697829    -1.81787551    -0.04050183     1.55064960
O       4.37111719     0.68161508     4.63886306    -2.70121072    -0.59273154    -3.15181498
O       2.99543571     3.92766069     4.45167818     2.70121072     0.59273154     3.15181498
O       1.67360954     2.80362268     2.45558197     0.25272128    -5.09194752    -4.25345184
O       5.69294340     1.80565308     6.63495928    -0.25272128     5.09194752     4.25345184
O       3.59546309     1.80561003     2.08971755     2.85764981    -3.53632128    -5.28947490
O       3.77108985     2.80366573     7.00082355    -2.85764981     3.53632128     5.28947490
O       0.44445616     0.49898485     2.08968853     0.25280381    -5.09186678     4.25196472
O       6.92209677     4.11029086     7.00085257    -0.25280381     5.09186678    -4.25196472
O       2.54193648     0.49902790     6.63498825    -2.85797840     3.53671877    -5.28873211
O       4.82461645     4.11024781     2.45555295     2.85797840    -3.53671877     5.28873211
