# total energy = -19958.61723184 eV

CRYSTAL
PRIMVEC
        7.60600008     0.00000000     0.00000000
        0.00000000     7.60600008     0.00000000
       -1.89786986    -1.89786986     4.85670466
PRIMCOORD
24 1
Ti      3.98411900     6.57507501     1.12917001    -1.81943180    -0.54870781     0.09612124
Ti      3.92353598     2.55630802     1.14496801    -1.82423616     1.17154390    -0.28096537
Ti     -0.03065402     6.68603999     1.22874201     1.94105762     1.14651832     0.26030321
Ti     -0.03975502     2.99414103     1.35401102     0.75353611    -2.49492770     1.10267791
Ti      5.55933124     2.88026520     3.71367381    -0.21753803     0.84439713    -1.27076667
Ti      5.64102425    -0.74861076     3.65857482     1.49756762    -0.59663962     1.78292752
Ti      1.82916620     2.86253322     3.65790382     0.20815505    -1.26645827     0.01061995
Ti      2.05231421    -1.01296480     3.45751784    -1.92224640     1.02238335     0.31965380
O       3.78338302     4.72382201     0.89512703     0.52947724     0.84517309    -1.23363684
O       4.24676300     0.81244398     0.68060598    -0.47848530    -0.75933318    -0.08742602
O      -0.29282399     4.80196302     0.95687201     0.96936410     1.09459718    -1.27376817
O      -0.27047001     1.21425800     0.92824400     0.82508659    -2.05001176    -1.87648717
O       5.71305024     4.85611024     4.05134679    -0.43016269    -0.08454536     1.39644661
O       5.30589222     1.12352723     3.94077282     1.57581197    -1.49928434     1.38118479
O       1.80446024     4.75458324     3.75944082     0.74933133    -1.45755969     1.69469648
O       1.99361121     0.79795225     4.05336179    -0.34122485     1.26957316     0.90105012
O       3.60449920     2.67811923     3.12048479     2.71746010     1.10461446     1.09188287
O       3.89611121    -0.81304280     3.10962581     0.25460744    -0.74749196    -0.48443664
O      -0.07539178     2.63467822     3.36094579    -1.04196231     1.02275436    -0.69911895
O       0.17347923    -0.91547976     3.36816081    -2.12088219     0.52340198    -1.43382532
O       5.81844701     6.71261299     1.77439900    -0.32283477    -0.21024947    -0.78985707
O       5.61672998     2.88803300     1.65186600     0.86604737     0.72735456     1.43729811
O       1.99848599     6.70011901     1.51783598    -0.42535010     0.07836443    -0.23392445
O       1.87962801     2.60400901     1.74568600    -1.94314767     0.86453324    -1.81065019
