# total energy = -4984.51283708 eV

CRYSTAL
PRIMVEC
        3.18044536     0.00000000     0.00000000
        2.34507374     4.39701253     0.00000000
       -0.00001508    -0.00006794     5.15679196
PRIMCOORD
6 1
Ti      2.76275175     2.19847219     2.57839609     0.00000000     0.00000000     0.00000000
Ti      0.00000000     0.00000000     0.00000000     0.00000000     0.00000000     0.00000000
O       2.04723995     0.85689970     1.00498286    -1.93203639     1.26603661     1.05521430
O       3.47826358     3.54004478     4.15180937     1.93203639    -1.26603661    -1.05521430
O       0.71550541     1.34154518     3.58337995     1.93186978    -1.26626801     1.05547963
O       1.62955289     3.05539938     1.57341223    -1.93186978     1.26626801    -1.05547963
