# total energy = -19935.78093462 eV

CRYSTAL
PRIMVEC
        6.98726600     0.00000000     0.00000000
        0.00002750     4.95770925     0.00000000
        0.00000000     0.00000000    10.85561613
PRIMCOORD
24 1
Ti      2.53256426     2.93793389     4.02735615     0.50458175    -0.17353924     0.84838671
Ti      4.45472935     2.01977536     6.82826009    -0.50458175     0.17353924    -0.84838671
Ti      6.02607681     2.01977709     1.40040857     0.50443546     0.17355621    -0.84870219
Ti      0.96121680     2.93793240     9.45520773    -0.50443546    -0.17355621     0.84870219
Ti      2.53255051     0.45907939     1.40045209     0.50485609    -0.17427561    -0.84853583
Ti      4.45474310     4.49863004     9.45516422    -0.50485609     0.17427561     0.84853583
Ti      0.96120306     0.45907754     6.82821651    -0.50473885    -0.17399176    -0.84874667
Ti      6.02609056     4.49863189     4.02739967     0.50473885     0.17399176     0.84874667
O       2.21152354     1.74569373     5.53953783     0.93635935     0.97377252    -0.92892629
O       4.77577007     3.21201558     5.31607841    -0.93635935    -0.97377252     0.92892629
O       1.28216982     1.74571371     0.11176466    -0.93631050     0.97404505    -0.92969428
O       5.70512392     3.21199560    10.74385123     0.93631050    -0.97404505     0.92969428
O       4.77575638     0.73316090     0.11172941    -0.93590787    -0.97379591    -0.92937366
O       2.21153723     4.22454836    10.74388647     0.93590787     0.97379591     0.92937366
O       5.70511017     0.73314098     5.53957302     0.93578754    -0.97369050    -0.92956572
O       1.28218339     4.22456839     5.31604317    -0.93578754     0.97369050     0.92956572
O       0.25388040     3.01555980     2.93237276    -1.57881399     0.44372629     0.44088522
O       6.73341322     1.94214951     7.92324349     1.57881399    -0.44372629    -0.44088522
O       3.74752121     1.94210328     2.49546989    -1.57901711    -0.44316836    -0.44109914
O       3.23977240     3.01560603     8.36014617     1.57901711     0.44316836     0.44109914
O       0.25386665     0.53670512     2.49543518    -1.57927139     0.44380471    -0.44144906
O       6.73342697     4.42100413     8.36018082     1.57927139    -0.44380471     0.44144906
O       3.23975871     0.53675135     7.92327807     1.57925648     0.44356714    -0.44133131
O       3.74753490     4.42095796     2.93233811    -1.57925648    -0.44356714     0.44133131
