# total energy = -4979.95908396 eV

CRYSTAL
PRIMVEC
        3.30873894     0.00000000     0.00000000
       -0.00000737     3.30873894     0.00000000
       -1.65439542    -1.65439910     4.22268677
PRIMCOORD
6 1
Ti     -0.00014571     2.48167953     1.05567158     0.00389522    -0.00373041     0.00013987
Ti      1.65448177    -0.82733978     3.16701491    -0.00389522     0.00373041    -0.00013987
O       0.00003305     0.82717911     0.68784112     0.00138891     0.00649435     3.83267214
O       1.65430292     0.82716054     3.53484541    -0.00138891    -0.00649435    -3.83267214
O      -0.00001869    -0.82716475     2.79918446     0.00649718     0.00134726     3.83176454
O       1.65435461     2.48150436     1.42350208    -0.00649718    -0.00134726    -3.83176454
