# total energy = -19961.04891159 eV

CRYSTAL
PRIMVEC
        5.93400000     0.00000000     0.00000000
        0.00000000     9.29699974     0.00000000
        0.00000000     0.00000000     4.64899994
PRIMCOORD
24 1
Ti      4.41156600     6.84818000     2.28973800     0.52394037     0.63176013     0.68047381
Ti      4.48214898     2.37078499     2.33628501    -0.13600447    -1.68778716     0.27795255
Ti      1.48434700     6.99256702     2.28168202    -0.49745285    -0.06900741     0.16881330
Ti      1.49931700     2.43418402     2.32121600    -0.05687385    -1.53370654     0.48649892
Ti      2.94960801     4.64598602     4.64166401    -0.36831812    -0.75986462     0.07671969
Ti      2.94867200     9.22348798     4.58928197     0.27131679     1.40026007    -0.05580299
Ti      5.92388901     4.67589099     0.03558701     0.51812067    -0.45928867    -0.46351762
Ti      0.01478003     9.23122402     0.08048199    -0.53515038     1.54950315    -0.16402873
O       4.49104398     5.58170401     0.90310601    -0.50782520     0.45187592     0.10466039
O       4.49097598     0.99786901     0.93670401    -0.05933903    -0.67925640    -0.47176984
O       1.46725003     5.56883198     0.88981499     0.11586218     0.19390830    -0.03488808
O       1.53059402     0.87080699     0.82121001    -0.18032824     0.43173903     0.71085270
O       4.49095301     8.42116202     3.77428900    -0.24566694    -0.68616701    -0.56338496
O       4.43179703     3.75298099     3.86607802     0.19583072    -0.18357246    -0.69884024
O       1.47939300     8.41068199     3.70592602     0.22176493    -0.64836998    -0.20317199
O       1.50279100     3.68632000     3.79379199    -0.29984756     0.75379888     0.43032132
O       2.90307100     5.97909501     3.24493998     0.82713319     0.99934189    -0.70453935
O       2.89931802     1.45811600     3.18581601     0.49410476    -0.25340854     0.14445054
O       0.09058599     6.03953202     3.13721701    -1.08790691    -0.34884663     0.88632335
O       0.06689102     1.44589201     3.19962801    -0.72994777     0.33287211    -0.18538226
O       2.98788499     7.84043598     1.39885201     0.38412784    -0.13316262     0.17925044
O       2.94048801     3.32572698     1.48453602     0.40630258     0.34819435    -0.39849414
O       5.91810701     7.82820801     1.41601498    -0.09491308     0.35568809    -0.09834062
O       5.83261001     3.35833600     1.46765400     0.84107089    -0.00650386    -0.10415646
