# total energy = -19928.64153777 eV

CRYSTAL
PRIMVEC
        7.20464761     0.00000000     0.00000000
        0.00002835     5.11194910     0.00000000
        0.00000000     0.00000000    11.19334640
PRIMCOORD
24 1
Ti      2.61135515     3.02933628     4.15265168     0.54880526    -0.36598947     1.16951813
Ti      4.59332093     2.08261281     7.04069485    -0.54880526     0.36598947    -1.16951813
Ti      6.21355476     2.08261460     1.44397684     0.54768091     0.36602855    -1.17070649
Ti      0.99112133     3.02933474     9.74936975    -0.54768091    -0.36602855     1.17070649
Ti      2.61134098     0.47336186     1.44402171     0.54905028    -0.37740595    -1.17172388
Ti      4.59333511     4.63858742     9.74932488    -0.54905028     0.37740595     1.17172388
Ti      0.99110715     0.47335995     7.04064992    -0.54846819    -0.37726993    -1.17088287
Ti      6.21356894     4.63858933     4.15269655     0.54846819     0.37726993     1.17088287
O       2.28032650     1.80000420     5.71187901     0.86505441     1.19939462    -1.21966469
O       4.92434959     3.31194496     5.48146752    -0.86505441    -1.19939462     1.21966469
O       1.32205955     1.80002480     0.11524178    -0.86557840     1.20024976    -1.22108239
O       5.88261666     3.31192435    11.07810438     0.86557840    -1.20024976     1.22108239
O       4.92433547     0.75597035     0.11520544    -0.86517628    -1.19957948    -1.21991434
O       2.28034062     4.35597875    11.07814072     0.86517628     1.19957948     1.21991434
O       5.88260249     0.75594981     5.71191529     0.86570901    -1.20018703    -1.22100732
O       1.32207354     4.35599941     5.48143118    -0.86570901     1.20018703     1.22100732
O       0.26177890     3.10937722     3.02360213    -1.75067585     0.49852320     0.33708769
O       6.94289719     2.00257194     8.16974439     1.75067585    -0.49852320    -0.33708769
O       3.86411076     2.00252427     2.57310673    -1.74965255    -0.49828949    -0.33792973
O       3.34056532     3.10942489     8.62023961     1.74965255     0.49828949     0.33792973
O       0.26176472     0.55340261     2.57307095    -1.75123378     0.49850803    -0.33778472
O       6.94291136     4.55854649     8.62027534     1.75123378    -0.49850803     0.33778472
O       3.34055121     0.55345028     8.16978006     1.74998036     0.49804986    -0.33722370
O       3.86412488     4.55849888     3.02356641    -1.74998036    -0.49804986     0.33722370
