# total energy = -19074.70797039 eV

CRYSTAL
PRIMVEC
        7.60600008     0.00000000     0.00000000
        0.00000000     7.60600008     0.00000000
       -1.89786986    -1.89786986     4.85670466
PRIMCOORD
22 1
Ti      3.94266997     6.58464100     1.25081399    -0.23370848     0.79968537    -0.26425602
Ti      3.62518701     2.77226298     1.14266699     0.89635760     0.04827788     0.57588593
Ti     -0.00891701     6.73270098     0.98864799    -0.02246939    -0.14833754     1.23873868
Ti     -0.12564499     2.89180000     1.05773901    -0.99445499    -0.38303204     0.70176976
Ti      5.59742120     2.93400220     3.52393382    -0.40842040    -0.14514705    -0.44757420
Ti     -1.18525380    -0.78752375     3.83750880    -2.80329050    -1.07442919    -0.61157105
Ti      1.80380824     2.75489422     3.67150780     0.45246496     0.04855402     0.01148975
Ti      1.65065625    -1.06005776     3.82208180     1.21008732     1.37275234    -1.15495822
O       3.72791201     4.74199898     0.89453599    -0.04008480    -0.06376698    -0.91862645
O       4.07040998     0.86560100     0.92628101    -1.20646438     0.12212025    -0.06805404
O      -0.06907102     4.83474201     0.65962600    -0.01649106    -0.58127445     0.10748938
O       7.19748303     1.00694202     0.65283100     1.79542823     0.24960613     0.93073043
O       5.33613925     4.93041223     4.01479482     1.65734734    -1.07693473    -0.87139166
O       5.66973624     0.91061620     3.94976481     0.36239507     1.20305021     0.33602942
O       2.21099420     4.81181323     4.17572382    -0.89400684    -1.66288524    -0.17995852
O       2.14460622     0.93134524     4.05835182    -1.33008718    -0.88461871     0.12534107
O       3.65927121     2.80111521     3.11477783     0.32331429     0.21784965     0.49274825
O      -0.05874275     2.68205123     3.22096381     0.05534250     1.10736451    -0.22000501
O       5.89718498     6.58884500     2.06231302    -0.13296876     0.09994370    -0.91749542
O       5.54496201     2.80034002     1.58164201     1.66007220     1.13152132     0.57071492
O       1.95462598     6.73382998     1.85485601     0.05769635    -0.34239239     0.28584456
O       1.75967200     2.75280101     1.46819498    -0.38805880    -0.03790733     0.27710872
