# total energy = -19074.46785186 eV

CRYSTAL
PRIMVEC
        5.17600016     0.00000000     0.00000000
        0.00000000     5.50899976     0.00000000
        0.00000000     0.00000000     9.26300011
PRIMCOORD
22 1
Ti      2.04206400     3.41330698     3.19078398    -0.19455133     1.13961773     1.17524706
Ti      3.49565300     2.26040100     5.88561098     0.22769749    -0.15084951    -0.76350068
Ti      4.49015898     2.35293103     1.28205799     0.90449617    -0.81119903    -2.20355990
Ti      0.64256798     3.09663001     8.05713401    -1.00947513     0.22164100     0.50211298
Ti      1.93490301     0.51910801     1.35601602    -0.32996959     0.59755288    -1.87012703
Ti      2.93434098     5.01932702     8.04031099     2.22617379     1.38681448     0.81992356
Ti      0.60743399     0.10844699     6.12606198    -0.31768125    -0.19982313    -1.71435309
Ti      4.63465702     4.96854998     3.40925401    -0.54272151     0.95633426     1.47680287
O       3.66495199     3.48726501     4.42871700    -0.78758216    -0.55355435     0.74580171
O       0.99802702     1.89986201     0.20179502    -0.72042954     0.84597116    -0.45859499
O       4.19474102     3.52142297     9.05315900    -0.17669065     0.57894503    -0.54952800
O       3.46505703     0.89053599     0.06334802    -0.19353086    -0.85299104    -0.53080650
O       1.65411198     4.75426701     0.00854399    -1.53042761    -1.52602383    -0.74267448
O       4.31464401     0.83199401     4.85952698     0.03663695    -0.64118529    -0.05289815
O       1.15267299     4.84764901     4.32017100    -0.35624499    -0.50308151     0.86981635
O       0.27144200     3.66139401     2.36021700     0.73062963    -1.89636669    -0.71767229
O       4.95248701     1.75526803     6.97005900     0.14277495     0.25670778     0.37565991
O       2.82096698     2.09819901     2.06798500    -0.53461971    -0.08487523     1.75718357
O       1.82159098     3.96151900     6.72627402    -0.01522068    -1.10015385     0.85227782
O       0.11115500     0.75479800     2.19402502     0.66396296     0.51224879     0.07151860
O       2.16430198     0.94379202     6.56347899     1.48312778     0.79952982     0.98339307
O       2.95860900     4.69320900     2.28848401     0.29364554     1.02473977    -0.02602163
