# total energy = -19961.64160532 eV

CRYSTAL
PRIMVEC
        7.60600008     0.00000000     0.00000000
        0.00000000     7.60600008     0.00000000
       -1.89786986    -1.89786986     4.85670466
PRIMCOORD
24 1
Ti      3.76418299     6.62863399     1.24394299     0.16981114    -1.62049442    -0.04960251
Ti      3.75118697     2.76665699     1.20250498     0.43004005     1.45541102     0.51603551
Ti      0.04154301     6.70750998     1.26259797     0.08079849     0.04977786    -0.48125053
Ti      0.01728700     2.92233898     1.14164599    -0.55638333    -0.11229400     0.42118722
Ti      5.70704223     2.97897825     3.62468080     0.06778150     0.08767079    -0.66710536
Ti      5.72414021    -0.87994578     3.62282879    -0.61512278    -0.42282090    -0.24859029
Ti      1.82109524     2.76337625     3.64580783     0.45120640     0.50685332     0.44655913
Ti      1.86880724    -1.04320680     3.72348984     0.77546608    -0.42763272    -1.19598559
O       3.72300897     4.69332500     0.71163799    -0.02712515    -0.27096943     0.84109223
O       3.75325500     0.86221299     0.80091199     0.07566451     1.06093346     0.64885875
O       0.13208899     4.78537300     0.79896700    -0.45210835     0.45186126    -0.75117481
O       0.12090203     0.98068297     0.80258599    -0.62697454    -0.02347110    -0.50665972
O       5.93463523     4.85961921     4.00047581    -0.72707482    -1.10808751     0.76225447
O       5.74146521     1.01564021     3.91494781    -0.35377184    -0.26212201     0.97631045
O       1.74834321     4.71087320     4.10897684     0.29575693     0.19076924    -0.28160069
O       1.96841120     0.90745521     4.07428583    -0.12562903    -0.69878830    -0.13084812
O       3.79164623     2.85462323     3.14626282     0.35512810     0.20872866     0.51189423
O       3.77484220    -1.19931176     3.21328782     0.79994325     0.79810414     0.59845456
O       0.00996520     2.90328822     3.19235881    -0.90022325    -0.38739803    -0.14372215
O       0.01440823    -0.86038479     3.23106680    -0.20579812     0.14926519    -0.51688217
O       5.68216301     6.58914102     1.55926400     0.87088593     0.37159782     0.58103611
O       5.71669098     2.99176698     1.59278098    -0.08836139    -0.51467797     0.09424434
O       1.93015100     6.53300198     1.70860301    -1.00740539     0.48413248    -0.22653047
O       1.82344997     2.79215502     1.69054801     1.31349585     0.03365138    -1.19797434
