# total energy = -4987.42287072 eV

CRYSTAL
PRIMVEC
        2.94000355     0.00000000     0.00000000
        1.35155313     4.40381193     0.00000000
       -0.00000900    -0.00006037     4.66043931
PRIMCOORD
6 1
Ti      2.14577390     2.20187582     2.33021965     0.00000000     0.00000000     0.00000000
Ti      0.00000000     0.00000000     0.00000000     0.00000000     0.00000000     0.00000000
O       1.73339783     0.85822641     0.90825096    -2.76151392     1.31828581     1.39770490
O       2.55815002     3.54552523     3.75218829     2.76151392    -1.31828581    -1.39770490
O       0.41237238     1.34362498     3.23847165     2.76139333    -1.31857429     1.39797050
O       0.93917194     3.06012645     1.42196766    -2.76139333     1.31857429    -1.39797050
