# total energy = -19518.53924212 eV

CRYSTAL
PRIMVEC
        7.60600008     0.00000000     0.00000000
        0.00000000     7.60600008     0.00000000
       -1.89786986    -1.89786986     4.85670466
PRIMCOORD
23 1
Ti      3.82129000     6.75274802     1.18638502     0.42390848    -0.17462014    -0.15590738
Ti      3.72098302     2.88959201     1.38966502    -0.08555426    -0.00348333     0.90305944
Ti      0.00856399     6.65742801     1.09364501    -0.15689134    -0.59194376    -0.10647456
Ti     -0.10256900     2.76957598     1.14313102     0.48290632     0.68891835     0.46381458
Ti      5.79188321     2.79538523     3.69419781    -1.83791495    -0.42072134    -0.55336228
Ti      5.74160624    -0.99653675     3.50483983    -0.62485415     0.53328196     1.00603936
Ti      1.89747224     2.82307924     3.76661979     1.71980177     0.30741586    -0.68098829
Ti      1.84825923    -0.89793579     3.59172782     0.54134571    -0.24104950     0.71554650
O       3.93576702     4.77801198     0.95165702    -0.96409539     0.09022004    -0.48648195
O       3.76754199     1.02344499     0.75857802    -0.12500451    -0.75657644    -0.01035332
O      -0.08472800     4.66967601     0.78185103     0.67182385     1.92766886     0.58443151
O       0.02050901     0.94709599     0.69926403     0.18723654    -1.32096105    -0.41624170
O       5.79512521     4.64653223     3.93164081     0.14118575     1.57466089     0.79435573
O       5.59459725     0.98416422     4.11243379     1.00697447    -1.96864557    -1.60645928
O       2.10092523     4.70998921     4.03074983    -1.13045277     1.39269022     0.50561148
O       1.84096225     1.00584022     4.13104379    -0.68658070    -1.14793808    -0.39892172
O       3.80592523     2.72019724     3.41356083    -0.61140650     0.43630171    -1.80489915
O       3.89611021    -0.89402475     3.14280581    -0.96854109    -0.16569738     0.07897918
O      -0.04607779    -1.13586579     3.13785181     1.44414624     0.55557960     0.21131725
O       5.77950099     6.85772001     1.49668699    -0.49928322    -0.36587969     0.50565879
O       5.68887700     2.82863301     1.70535402     0.79730376    -0.38701519     0.19186967
O       1.89076598     6.74355499     1.68065599     0.20771359    -0.05481645    -0.77584352
O       1.78667602     2.83840199     1.64953598     0.06623344     0.09261014     1.03524967
