# total energy = -19961.18840550 eV

CRYSTAL
PRIMVEC
        7.60600008     0.00000000     0.00000000
        0.00000000     7.60600008     0.00000000
       -1.89786986    -1.89786986     4.85670466
PRIMCOORD
24 1
Ti      3.79330700     6.75755702     1.24553899     0.91688092    -0.67224782    -0.09637244
Ti      3.80148099     2.90742099     1.23909901     0.72667656     0.54310306    -1.17793978
Ti      0.02532701     6.51909801     1.24991799    -1.03150357     0.68241860    -0.43058461
Ti      0.05016801     2.78249299     1.19792198    -0.69175325    -0.63670077    -0.40603365
Ti      5.68511021     2.89363323     3.63599583    -0.08494671    -0.94640877    -1.33402791
Ti      5.64284324    -1.05716676     3.63432781    -0.77892345     1.23716028    -0.17208348
Ti      1.93210324     3.01262424     3.61547079    -0.34496632    -1.23562893     1.48644245
Ti      1.85189320    -0.91392679     3.61949883     1.18505068     1.01931860     1.01642148
O       3.91348701     4.83199399     0.74694501    -0.91551387    -0.37541077     0.29173367
O       3.95567900     1.02951497     0.78335601    -0.91050870    -1.18443285    -0.21512557
O       0.09333798     4.66901200     0.66768400     0.02679476     0.83457448     1.12191208
O      -0.02168600     0.87838698     0.74257300     0.47043646    -0.67956519     1.02897644
O       5.30677224     4.74148923     4.06941581     1.07354318    -0.91655851     0.39129016
O       5.69481321     0.88399324     4.06029581     0.23209177     0.41067860    -0.14008327
O       2.09921424     4.84650424     4.04438181    -0.72768417     0.39403276     0.15403613
O       1.95181721     1.03835425     4.11736583    -0.88575437    -0.98529620    -0.60092308
O       3.73716224     2.83279023     3.21348981     1.80740058     0.10553225    -0.01464758
O       3.77701421    -0.82602378     3.19709183    -0.53439551     0.34759888    -0.13653103
O       0.02465220     3.06713023     3.18212479    -1.02883323    -0.00341211     0.20812625
O      -0.04108876    -1.05127379     3.19265880     0.21720302     0.04258417     0.00692398
O       5.59862000     6.42886101     1.66117798     1.87846641     0.48463230     0.04897105
O       5.69182701     2.76552598     1.61239398     0.73649869     0.40019955     0.65985716
O       1.90183801     6.41196898     1.64791601    -0.71994206     0.87494210    -0.45669931
O       1.92182799     2.69953001     1.69703398    -0.61631808     0.25888627    -1.23363889
