# total energy = -19517.43153721 eV

CRYSTAL
PRIMVEC
        5.93400000     0.00000000     0.00000000
        0.00000000     9.29699974     0.00000000
        0.00000000     0.00000000     4.64899994
PRIMCOORD
23 1
Ti      4.49669802     6.95079202     2.32709299     0.07326721     0.61196623    -0.13224551
Ti      4.49079600     2.37900602     2.35623299    -0.75505075    -0.36388039     0.33024521
Ti      1.49007498     7.05115001     2.33159100     0.01471751     0.83428755    -0.26720122
Ti      1.41377201     2.29145100     2.24228800     1.10957155    -0.17998989     1.28669363
Ti      2.89019500     4.50704000     0.01472801     0.72608134    -1.78817849     0.17065061
Ti      2.98314202     0.05617502     0.02821600     0.75686209     0.68550084    -0.94235774
Ti      5.93058702     4.71558902     4.63156900    -0.71105658    -0.85917198    -0.22710383
Ti      0.03046098     9.28548400     0.04632201    -0.96532027     0.57001610    -0.74289019
O       4.41632801     5.52029902     0.93965798     0.06103416     0.35435240    -0.27397865
O       4.42661702     1.01843400     0.93798001     0.30983244    -1.53027695    -0.45520756
O       1.55415601     5.43422897     0.82674399    -0.30604855     1.67691627     0.67167987
O       1.44970600     0.97034402     0.81995697    -0.21651319    -0.84674763     0.70168157
O       4.40970800     8.39560599     3.71440101     0.30966275    -0.49046228     0.20103412
O       4.47743899     3.59166099     3.84071001    -0.08738309     1.56384657    -0.48899778
O       1.43607201     8.46828499     3.61890102    -0.07140907    -0.65480957     0.84437013
O       1.50721900     3.63167499     3.69546900     0.25463804     1.68764240     0.52977626
O       2.84821601     1.41227401     3.28987401     1.10922265    -0.30161314    -0.30104775
O       0.14226100     6.01830699     3.13885698    -1.15476873    -0.65531145     1.08791643
O       5.89750699     1.56351599     3.37306702     0.11966741    -1.18531962    -1.16199739
O       2.92027402     7.93054502     1.50026598     0.89910688    -0.61726605    -0.42378918
O       2.97232098     3.12849400     1.38953902    -0.09985911     0.93890372     0.01021448
O       0.01445199     7.77028401     1.37467301    -0.11927455     0.87647551    -0.84722869
O       0.11656103     3.31166399     1.38286102    -1.25698066    -0.32688015     0.42978319
