# total energy = -19959.67615733 eV

CRYSTAL
PRIMVEC
        7.60600008     0.00000000     0.00000000
        0.00000000     7.60600008     0.00000000
       -1.89786986    -1.89786986     4.85670466
PRIMCOORD
24 1
Ti      3.94437498     6.70302398     1.14393098    -0.79684456    -2.19576714     0.04603279
Ti      3.78951401     2.71087700     1.15453501    -1.00623811     2.12104622     1.18685431
Ti     -0.00180201     6.62741598     1.16155301     0.67261626     1.24574314    -0.30734336
Ti     -0.14550199     2.91505501     1.34627598     1.68508107    -1.53980700     0.71334975
Ti      5.63770424     2.74733223     3.69831381     0.50842813     1.56868667     0.28339867
Ti      5.67901325    -0.89077677     3.62520479     1.43688725    -1.71723375     0.95016618
Ti      2.02536523     2.82580424     3.70720679    -1.23663912    -0.31391690    -1.84230768
Ti      2.05474224    -0.94890080     3.64470482    -0.93643417    -0.09588444    -3.06302241
O       3.91084298     4.78225900     0.66418502    -0.20628637    -1.63326201     2.98224500
O       3.93833400     0.92152599     0.71524100     0.04009225     0.14670746    -0.06000031
O      -0.30361799     4.69181901     0.92103999     0.94143985     1.00260231    -1.42102739
O      -0.08311401     1.01963301     0.84954301     0.15255055    -0.48396638    -0.98885821
O       5.39254023     4.79207222     3.98300582     0.73238595     0.02024385     1.04799412
O       5.65075825     0.93865424     3.98019282     0.25154269     0.61388453     1.13450175
O       2.07694921     4.62103822     4.03528679    -0.11750177     3.87743352    -0.70009777
O       1.76680822     0.85634521     4.06549281     0.16363741     0.08271216    -0.16096654
O       3.76505623     2.81127721     3.06079979     0.30769817    -0.55950568     1.40125868
O       3.91651422    -0.63246376     3.04895680    -2.47363947    -0.65693047     1.23677358
O      -0.15231679     2.98240324     3.36409281     0.66808803    -0.23678223    -0.23341614
O      -0.04671677    -0.98959675     3.05208281     1.20155254    -0.22245398     1.78696570
O       5.75740001     6.70387199     1.60549499    -1.18077982     0.01347747    -0.47316055
O       5.66319100     2.83177098     1.77162601    -1.30340272    -0.42425146    -1.55987807
O       1.94733799     6.75900099     1.57841101     0.21537522    -0.67560029     0.25931462
O       1.80342099     2.79212602     1.80895099     0.28039099     0.06282467    -2.21877672
