# total energy = -19959.21461736 eV

CRYSTAL
PRIMVEC
        5.08648514     0.00000000     0.00000000
        0.80751910     5.35299228     0.00000000
        0.00000000     0.00000000     9.12954347
PRIMCOORD
24 1
Ti      2.32214127     3.17217821     3.38699554     0.94699164    -0.80329340     0.50008952
Ti      3.57186291     2.18081391     5.74254813    -0.94699164     0.80329340    -0.50008952
Ti      4.71574916     2.18081572     1.17773979    -1.43549782    -0.52311453     0.84043711
Ti      1.17825504     3.17217661     7.95180399     1.43549782     0.52311453    -0.84043711
Ti      1.91838183     0.49568217     1.17777640     0.94699164    -0.80329340    -0.50008952
Ti      3.97562236     4.85731011     7.95176738    -0.94699164     0.80329340     0.50008952
Ti      0.77449557     0.49568021     5.74251152     1.43549782     0.52311453     0.84043711
Ti      5.11950862     4.85731207     3.38703215    -1.43549782    -0.52311453    -0.84043711
O       1.89424584     1.88487951     4.65873619    -0.16330188     0.17649833    -0.46522432
O       3.99975833     3.46811261     4.47080743     0.16330188    -0.17649833     0.46522432
O       1.21771210     1.88490115     0.09399376     0.49379366    -0.60630646     0.24442227
O       4.67629213     3.46809102     9.03554965    -0.49379366     0.60630646    -0.24442227
O       3.59599888     0.79161641     0.09396415     0.16330188    -0.17649833    -0.46522432
O       2.29800530     4.56137571     9.03557927    -0.16330188     0.17649833     0.46522432
O       4.27253268     0.79159482     4.65876586    -0.49379366     0.60630646     0.24442227
O       1.62147145     4.56139736     4.47077782     0.49379366    -0.60630646    -0.24442227
O       0.67598265     3.25599334     2.46611750    -0.33706506    -0.13518017    -0.42756459
O       5.21802152     2.09699873     6.66342618     0.33706506     0.13518017     0.42756459
O       3.04438906     2.09694895     2.09868338     0.53601504    -0.41160806    -0.55111154
O       2.84961511     3.25604312     7.03086014    -0.53601504     0.41160806     0.55111154
O       0.27222320     0.57949714     2.09865418    -0.33706506    -0.13518017     0.42756459
O       5.62178097     4.77349493     7.03088928     0.33706506     0.13518017    -0.42756459
O       2.44585566     0.57954693     6.66345527    -0.53601504     0.41160806    -0.55111154
O       3.44814852     4.77344514     2.46608835     0.53601504    -0.41160806     0.55111154
