# total energy = -4975.57957752 eV

CRYSTAL
PRIMVEC
        4.94409268     0.00000000     0.00000000
       -0.00001101     4.94409267     0.00000000
       -2.47208511    -2.47209062     6.30976184
PRIMCOORD
6 1
Ti     -0.00021772     3.70825677     1.57744029    -0.00026071     0.00026071     0.00000000
Ti      2.47221414    -1.23625484     4.73232114     0.00026071    -0.00026071    -0.00000000
O       0.00004939     1.23601477     1.02780857    -0.00018049    -0.00242609    -1.30626847
O       2.47194689     1.23598702     5.28195292     0.00018049     0.00242609     1.30626847
O      -0.00002792    -1.23599331     4.18268942    -0.00242609    -0.00018049    -1.30626847
O       2.47202414     3.70799502     2.12707207     0.00242609     0.00018049     1.30626847
