# total energy = -19071.26160776 eV

CRYSTAL
PRIMVEC
        5.17600016     0.00000000     0.00000000
        0.00000000     5.50899976     0.00000000
        0.00000000     0.00000000     9.26300011
PRIMCOORD
22 1
Ti      1.96235498     3.53574399     3.41840598    -1.17008403     1.02531415    -0.59309381
Ti      3.80939197     2.29786299     6.06444003    -0.50990882    -0.10945730    -1.29539939
Ti      4.25190100     2.54753099     1.62023998     0.97601503    -1.17481460     0.32011480
Ti      1.29862002     2.44716897     7.74783202    -0.42888922    -0.01877240     2.04545576
Ti      1.54087599     0.71697400     1.16008602     0.59930637     0.27279235    -0.16972501
Ti      3.08357198     5.38770699     8.00413199     0.23492975     0.15450536     0.26241871
Ti      0.63779802     5.32439099     6.39233100    -2.10545890    -0.58086127    -0.66730822
Ti      4.49417199     5.04091899     3.51694799    -0.25923080     2.20421347     1.46038534
O       3.51529902     3.27698801     4.21654899     2.25116492    -0.56916352     2.31690728
O       0.39971599     2.01414201     0.34217098    -0.93102380     1.21113505    -1.41133484
O       5.17150300     3.40105499     6.70465300     1.40871129     1.64869532    -1.38253513
O       2.69389300     1.53858201     9.01392997     0.33137958    -0.76778568     1.15013997
O       1.33837399     4.76140402     8.25207502    -1.28058906     0.26621675     1.89104013
O       4.35587898     0.62862998     5.17445798    -0.82486162    -0.82899441    -2.35194397
O       1.06782497     4.99191897     4.55249098     0.91085271    -2.07620077     0.00947606
O       0.33067800     3.87480299     2.49890700    -1.78853073    -1.40231438    -2.22009107
O       4.63252899     1.20754502     7.25743701     1.76208178    -2.06786268     3.06286172
O       2.42878298     2.03284901     2.14370101     0.93999464     0.58576514     0.95643505
O       2.82758900     3.45815100     7.18682899     0.01594753    -0.22540690    -0.77977243
O       0.03384300     1.05933501     2.45229501    -1.54989293    -0.63293513     0.28318604
O       2.12493501     0.89497901     6.72562599     0.39511211     2.16107060    -1.81513754
O       2.73560402     4.80941299     2.38379201     1.02297394     0.92486035    -1.07207945
