# total energy = -19884.75398451 eV

CRYSTAL
PRIMVEC
        9.20248822     0.00000000     0.00000000
        0.00003014     4.19752717     0.00000000
        0.00000000     0.00000000    14.00546782
PRIMCOORD
24 1
Ti      3.33547708     2.48745073     5.19592867     0.28607287    -0.36097016     2.73722238
Ti      5.86704088     1.71007650     8.80953935    -0.28607287     0.36097016    -2.73722238
Ti      7.93656368     1.71007793     1.80674932     0.28610552     0.36114628    -2.73762527
Ti      1.26595427     2.48744943    12.19871883    -0.28610552    -0.36114628     2.73762527
Ti      3.33546221     0.38868721     1.80680551     0.28607287    -0.36097016    -2.73722238
Ti      5.86705574     3.80884009    12.19866265    -0.28607287     0.36097016     2.73722238
Ti      1.26593941     0.38868565     8.80948316    -0.28610552    -0.36114628    -2.73762527
Ti      7.93657855     3.80884165     5.19598486     0.28610552     0.36114628     2.73762527
O       2.91265613     1.47802066     7.14688308     0.88691548     1.09666307    -2.50057590
O       6.28986183     2.71950651     6.85858494    -0.88691548    -1.09666307     2.50057590
O       1.68866279     1.47803759     0.14419413    -0.88663523     1.09683070    -2.50129401
O       7.51385523     2.71948964    13.86127349     0.88663523    -1.09683070     2.50129401
O       6.28984703     0.62074293     0.14414870    -0.88691548    -1.09666307    -2.50057590
O       2.91267093     3.57678431    13.86131892     0.88691548     1.09666307     2.50057590
O       7.51384043     0.62072599     7.14692851     0.88663523    -1.09683070    -2.50129401
O       1.68867746     3.57680124     6.85853951    -0.88663523     1.09683070     2.50129401
O       0.33436587     2.55317395     3.78322630    -2.15773588     0.65482319    -0.02291959
O       8.86815208     1.64435322    10.22224173     2.15773588    -0.65482319     0.02291959
O       4.93562169     1.64431411     3.21955224    -2.15767931    -0.65481754     0.02268845
O       4.26689627     2.55321312    10.78591558     2.15767931     0.65481754    -0.02268845
O       0.33435107     0.45441037     3.21950755    -2.15773588     0.65482319     0.02291959
O       8.86816688     3.74311687    10.78596027     2.15773588    -0.65482319    -0.02291959
O       4.26688147     0.45444947    10.22228635     2.15767931     0.65481754     0.02268845
O       4.93563649     3.74307776     3.78318160    -2.15767931    -0.65481754    -0.02268845
