# total energy = -4990.09576902 eV

CRYSTAL
PRIMVEC
        2.89354617     0.00000000     0.00000000
        0.22654631     4.52808937     0.00000000
       -0.00000125    -0.00005884     4.53517152
PRIMCOORD
6 1
Ti      1.56004551     2.26401511     2.26758566     0.00000000     0.00000000     0.00000000
Ti      0.00000000     0.00000000     0.00000000     0.00000000     0.00000000     0.00000000
O       1.49092330     0.88244635     0.88383807    -0.41555933     0.33705221     0.33599960
O       1.62916767     3.64558388     3.65133320     0.41555933    -0.33705221    -0.33599960
O       0.06912159     1.38154492     3.15142465     0.41538372    -0.33752324     0.33650328
O       0.15742337     3.14648551     1.38374662    -0.41538372     0.33752324    -0.33650328
