# total energy = -19920.10831267 eV

CRYSTAL
PRIMVEC
        7.72092886     0.00000000     0.00000000
        0.00002585     3.95652741     0.00000000
        0.00000000     0.00000000    11.66509660
PRIMCOORD
24 1
Ti      2.79848080     2.34463455     4.32766764     0.12270286    -0.00905286     2.26370933
Ti      4.92247408     1.61189303     7.33742908    -0.12270286     0.00905286    -2.26370933
Ti      6.65881307     1.61189444     1.50483411     0.12302373     0.00915673    -2.26401838
Ti      1.06214187     2.34463333    10.16026278    -0.12302373    -0.00915673     2.26401838
Ti      2.79846793     0.36637091     1.50488089     0.12270286    -0.00905286    -2.26370933
Ti      4.92248700     3.59015680    10.16021600    -0.12270286     0.00905286     2.26370933
Ti      1.06212895     0.36636939     7.33738230    -0.12302373    -0.00915673    -2.26401838
Ti      6.65882593     3.59015832     4.32771442     0.12302373     0.00915673     2.26401838
O       2.44373193     1.39316062     5.95260952     2.02329053     0.70218859    -1.26201771
O       5.27722301     2.56336697     5.71248720    -2.02329053    -0.70218859     1.26201771
O       1.41679605     1.39317654     0.12009870    -2.02313652     0.70232331    -1.26312817
O       6.30415895     2.56335105    11.54499767     2.02313652    -0.70232331     1.26312817
O       5.27721009     0.58510326     0.12006086    -2.02329053    -0.70218859    -1.26201771
O       2.44374479     3.37142432    11.54503556     2.02329053     0.70218859     1.26201771
O       6.30414608     0.58508734     5.95264735     2.02313652    -0.70232331    -1.26312817
O       1.41680874     3.37144030     5.71244937    -2.02313652     0.70232331     1.26312817
O       0.28053503     2.40658429     3.15103360    -1.62979693     0.51820269     0.38955030
O       7.44041984     1.54994335     8.51406312     1.62979693    -0.51820269    -0.38955030
O       4.14100913     1.54990642     2.68155183    -1.62899500    -0.51825514    -0.38964054
O       3.57994575     2.40662123     8.98354471     1.62899500     0.51825514     0.38964054
O       0.28052217     0.42832053     2.68151458    -1.62979693     0.51820269    -0.38955030
O       7.44043277     3.52820706     8.98358196     1.62979693    -0.51820269     0.38955030
O       3.57993289     0.42835746     8.51410031     1.62899500     0.51825514    -0.38964054
O       4.14102205     3.52817012     3.15099635    -1.62899500    -0.51825514     0.38964054
