# total energy = -39036.14519663 eV

CRYSTAL
PRIMVEC
        7.60600008     0.00000000     0.00000000
        0.00000000     7.60600008     0.00000000
       -3.79573973    -3.79573973     9.71340985
PRIMCOORD
46 1
Ti      2.09025845     4.79080146     6.03630261    -1.30515930     0.30296245     0.08230387
Ti      3.70014502     6.85739102     1.15575402     0.50261100     0.19185707     1.36914251
Ti      1.94272044     0.77438746     6.08705960    -0.17655232    -0.35480414    -0.68822621
Ti      3.66909798     2.87586398     1.29360099     1.25844902    -0.19133823    -0.34442742
Ti     -1.74570055     4.76086548     6.09386964     0.24368282     0.88809947    -0.50985046
Ti     -0.03739701     6.69086000     1.15862999     0.20508129     0.45564850     0.47199584
Ti     -1.85353354     0.96168244     6.09080364     0.08553806    -1.66222241    -0.25189981
Ti     -0.01695902     2.90556998     1.17754998    -1.47614595    -0.41510167     1.12588649
Ti      3.75614944     0.94232942     8.47119563     1.75657319    -0.16165946    -0.06252128
Ti      5.49657399     2.69206501     3.67096100     2.16117242     0.01438790     0.34196559
Ti      3.75706846    -2.83043158     8.42774065     0.65516721     0.72013052     0.94299640
Ti      5.77854101    -1.08547102     3.57588600    -0.82467419     0.54891916     1.56887565
Ti      0.01585045     0.97269245     8.39455663    -1.13651235     0.08629808     0.05886851
Ti      1.80628902     2.86708800     3.49777198    -2.77461780    -0.17878481     2.49271141
Ti      0.06011845    -2.77457856     8.51781461    -0.76623711     0.08312071     0.74272436
Ti      1.89298302    -0.95705701     3.66943999     1.00653250     0.38074555    -0.52306979
O       2.15133243    -1.01145654     5.57948760     0.08266357     0.20245542     0.26586991
O       3.67230400     1.11268000     0.84239801     0.88680749    -1.59812530    -0.89797611
O      -1.92350856     2.76997847     5.76441362     0.38037814     0.20533043    -0.55837439
O       0.32928298     4.77074199     0.73753000    -1.09642138     0.22167263    -0.39603822
O      -1.92823554    -1.00133353     5.54675164    -0.23141428    -0.26995899     0.93367975
O      -0.11703602     0.94351600     0.86554501    -0.15742845    -0.12352304    -0.36878066
O       3.70190046     2.98289246     8.81767761    -0.05075565    -1.90080159     0.59621205
O       5.62146300     4.70929202     4.18294200    -0.23256125    -1.12285028    -0.79167047
O       3.85647044    -0.96224353     8.94745161    -0.13673106     0.96151992    -0.15145372
O       5.92611600     0.85541598     3.94394799    -0.81935946     1.21020997     0.74329566
O      -0.05548053     2.86627646     8.89449663     0.90379169    -0.09223168    -0.05793315
O       1.90573100     4.73690200     4.05886100     0.50031501    -0.89287350    -0.10850394
O      -0.04554253    -0.74064854     9.10414263     0.13307495     0.08241623     0.04523369
O       1.72077202     1.04701301     4.23189900    -0.11490830    -0.07196700    -0.17177649
O       1.91151946     0.90565945     8.03207064     0.25545154     0.66591468     0.44409036
O       3.63193699     2.60089698     3.31960202     1.27733044     0.58158144    -0.17448824
O       1.87267642    -2.45609757     8.17745563     1.74591751    -1.11613455    -1.06592372
O       3.82108801    -0.69694602     3.10615499    -0.46587892    -0.86185570     0.87571960
O      -1.88491053     0.95289143     8.06562164    -0.53886871     0.54321774    -0.14651642
O      -0.11025302     2.90877701     3.29611798     0.36383360     0.26303963    -0.57711671
O      -1.73588956    -2.76440756     8.20856263    -1.67276008     0.12694595    -1.04652422
O       0.06123999    -1.12518302     3.23087201     0.12771188     0.26033123    -0.47918927
O       3.94131745     4.63780546     6.51011760    -1.58258015    -0.08857814     0.47673104
O       5.73486002     6.49897498     1.71605499    -0.01869321    -0.21893132    -2.51026151
O       3.85767347     0.76647647     6.43540063    -1.00050146     0.70648156     0.60540606
O       5.56418898     2.97640401     1.79726898    -0.35296529     0.38432659    -1.33374175
O       0.11300644     4.86300647     6.43606660     0.49786809    -0.85893235     0.28805031
O       1.94590900     6.78365102     1.63989500    -1.19417425    -0.47756459    -0.47233677
O      -0.05265557     0.41120544     6.49200461     1.43534150     1.65688300     0.25913876
O       1.71951200     2.56867098     1.67650999     1.66060801     0.91374263    -1.04229681
