# total energy = -19074.94306461 eV

CRYSTAL
PRIMVEC
        7.60600008     0.00000000     0.00000000
        0.00000000     7.60600008     0.00000000
       -1.89786986    -1.89786986     4.85670466
PRIMCOORD
22 1
Ti      3.76525102     6.83049903     1.10290800    -0.09263354     0.07803661    -0.25041937
Ti      3.97722303     3.08643499     1.11410099    -0.50168463    -0.55289074     1.14245854
Ti     -0.07655401     6.52574098     1.11365998    -0.64508308    -0.43870724     1.27216560
Ti      0.02672499     2.65134498     1.22785802     0.15949742     0.95078787    -0.69816661
Ti      5.74142520     2.62122823     3.66659979    -0.68115850    -0.73822287     0.01700657
Ti      6.10652824    -1.18532275     3.77756180    -0.63005035     1.14677928     0.12319085
Ti      1.93286520     2.92431021     3.59574782     0.27968265     0.20758272    -1.39814868
Ti      1.48156623    -0.74048180     3.74977883    -0.29880086    -0.32056295    -1.65188966
O       3.98681500     4.97227200     0.65513302    -0.40274238    -0.32860845     1.32576567
O       3.84580799     1.24401898     0.63108499     0.26651885    -1.62512395     3.10784164
O      -0.18756698     4.63334302     0.70866100     0.21639441    -0.14984061     1.14597710
O       7.27646400     0.82889203     0.69645298     0.69116421    -0.56877245     1.27986452
O       5.62327823     4.56305024     4.09992283     0.85154428     1.24991295    -1.35308262
O       5.49882220     0.74661623     4.04759783     0.90914807     0.15505738     0.23730443
O       1.86525022     4.93928420     4.06425781    -0.33379616     0.80441440    -0.22171788
O       2.26421721     1.11342920     3.95765183    -1.29984508    -1.09138870     0.44029644
O       3.71308023     2.82623520     3.14071783     1.70083422     1.00059093    -0.88377770
O      -0.00345775     2.49437423     3.34116980     0.74634139     0.49340285    -0.57041050
O       5.62967398     6.64308699     2.05849500    -0.44418703     0.01064154    -2.14279134
O       5.80730301     2.85870298     1.72779600    -1.38299716     0.33585279    -0.48222189
O       1.70739601     6.76057100     1.85534402     1.17658481    -0.14116827    -0.99592438
O       1.87119002     3.09459300     1.49085900    -0.28473153    -0.47777362     0.55667952
