# total energy = -19889.63719091 eV

CRYSTAL
PRIMVEC
        7.88008319     0.00000000     0.00000000
        0.00002450     2.79559716     0.00000000
        0.00000000     0.00000000    12.53654772
PRIMCOORD
24 1
Ti      2.85616548     1.65666819     4.65096990    -0.34856613     0.45911898     1.09632162
Ti      5.02394189     1.13892870     7.88557820     0.34856613    -0.45911898    -1.09632162
Ti      6.79607266     1.13892960     1.61725406    -0.34732788    -0.45938174    -1.09582000
Ti      1.08403476     1.65666740    10.91929413     0.34732788     0.45938174     1.09582000
Ti      2.85615355     0.25886967     1.61730434    -0.34856613     0.45911898    -1.09632162
Ti      5.02395387     2.53672733    10.91924386     0.34856613    -0.45911898     1.09632162
Ti      1.08402278     0.25886871     7.88552792     0.34732788     0.45938174    -1.09582000
Ti      6.79608464     2.53672829     4.65102017    -0.34732788    -0.45938174     1.09582000
O       2.49410459     0.98437720     6.39730449     5.55579707    -0.29166862     0.85396215
O       5.38600283     1.81121975     6.13924360    -5.55579707     0.29166862    -0.85396215
O       1.44600009     0.98438855     0.12907081    -5.55670004    -0.29190362     0.85372278
O       6.43410738     1.81120840    12.40747691     5.55670004     0.29190362    -0.85372278
O       5.38599085     0.41342111     0.12903009    -5.55579707     0.29166862     0.85396215
O       2.49411657     2.38217578    12.40751762     5.55579707    -0.29166862    -0.85396215
O       6.43409540     0.41340982     6.39734515     5.55670004     0.29190362     0.85372278
O       1.44601191     2.38218713     6.13920294    -5.55670004    -0.29190362    -0.85372278
O       0.28631636     1.70044066     3.38643436     0.14484084     0.06306301     3.64803190
O       7.59379106     1.09515623     9.15011368    -0.14484084    -0.06306301    -3.64803190
O       4.22636837     1.09513032     2.88187952     0.14382114    -0.06307510    -3.64757759
O       3.65373905     1.70046663     9.65466836    -0.14382114     0.06307510     3.64757759
O       0.28630438     0.30264208     2.88183950     0.14484084     0.06306301    -3.64803190
O       7.59380304     2.49295486     9.65470838    -0.14484084    -0.06306301     3.64803190
O       3.65372712     0.30266800     9.15015364    -0.14382114     0.06307510    -3.64757759
O       4.22638030     2.49292890     3.38639434     0.14382114    -0.06307510     3.64757759
