# total energy = -19960.73517712 eV

CRYSTAL
PRIMVEC
        5.93400000     0.00000000     0.00000000
        0.00000000     9.29699974     0.00000000
        0.00000000     0.00000000     4.64899994
PRIMCOORD
24 1
Ti      4.43290602     6.78679502     2.36890800     1.59160986     1.69008932    -0.14908444
Ti      4.43932002     2.42883102     2.31433501    -0.36026259    -1.30058530     0.28967293
Ti      1.55388603     6.98643603     2.25686302    -1.63576601     0.92564170    -0.28741833
Ti      1.43627400     2.37399403     2.32874202     0.23320583    -0.73964315     0.71069380
Ti      2.96546301     4.64836202     0.01478299    -0.45686103    -0.27119980     0.19046791
Ti      2.92224002     0.01907298     0.04157301     1.10247582    -0.20291308    -0.65424238
Ti      0.01309100     4.65419398     4.61864099     0.46466073     0.23670150    -0.25262641
Ti      5.91697298     0.01807199     0.02633498    -1.16145566    -0.80317230    -0.24822236
O       4.50716499     5.50721702     0.88824698    -0.81977983     0.12414242     0.17807647
O       4.48243500     0.83729499     0.98744099    -0.57516345     0.62624254    -0.19524348
O       1.50123400     5.61234998     0.91871600     0.28043290    -0.88065458    -0.93964497
O       1.46058499     0.85768001     0.98399298     0.60131132     0.21630005     0.08355060
O       4.45132398     8.41992502     3.70864102    -0.29304982    -0.29713170     0.06311546
O       4.51254402     3.73661502     3.71480699    -0.46077014     0.74390475     0.26188855
O       1.52312601     8.48602201     3.67546102     0.32607205    -0.37047528     0.11528445
O       1.44331100     3.72607698     3.79483701     0.58527637     0.08027656    -0.22476232
O       2.88223501     5.97098002     3.22296198     0.88238031     0.43652694    -0.06171318
O       2.97248101     1.68372702     3.34546201    -0.19548362    -1.41193545    -0.24828407
O       0.13663499     5.95982999     3.15207302    -1.06910469     0.57553214     0.31384902
O       5.92949702     1.40613000     3.22043902     0.03282040     0.86015183    -0.18343002
O       3.08342699     7.70057099     1.29363200    -0.59442590     0.64417599     0.66928617
O       2.91454298     3.29041001     1.40932401     0.35782544    -0.11256551    -0.21311059
O       5.85704303     7.83424201     1.40855998     0.74180442    -0.30870861     0.17075705
O       5.90241500     3.27497402     1.37160198     0.42224832    -0.46070072     0.61113962
