# total energy = -39040.58515904 eV

CRYSTAL
PRIMVEC
        7.60629642     0.00000000     0.00000000
       -0.00001693     7.60629642     0.00000000
       -3.80320786    -3.80321633     9.70732590
PRIMCOORD
46 1
Ti      1.90140238     4.75400335     6.15073845     0.00012418    -0.00060472    -0.00960179
Ti      3.77224430     6.65563791     1.22901985    -0.00805347     0.00010722    -0.01646201
Ti      1.90140667     0.95085516     6.15074039     0.00015555    -0.00060498    -0.00951926
Ti      3.77225272     2.85248680     1.22901985    -0.00805347     0.00015092    -0.01646201
Ti     -1.90175595     4.75374276     5.89279679     0.00010901     0.00000668     0.00939533
Ti      0.03069811     6.65571918     1.22893469     0.00809049     0.00011519    -0.01629797
Ti     -1.90175432     0.95059451     5.89279729     0.00012238     0.00000694     0.00932025
Ti      0.03070652     2.85256341     1.22893473     0.00809075     0.00024631    -0.01629797
Ti      3.75120218     0.95072820     8.52719862     0.00399858     0.00003702    -0.01808797
Ti      5.70481348     2.85235750     3.56207160    -0.00027177    -0.00006531    -0.00805990
Ti      3.75121763    -2.85242000     8.52718852     0.00408523     0.00003702    -0.01798384
Ti      5.70482201    -0.95078920     3.56207155    -0.00027177    -0.00009205    -0.00805990
Ti      0.05201646     0.95073560     8.52721039    -0.00380163     0.00005142    -0.01801393
Ti      1.90161337     2.85222166     3.69058310    -0.00016069     0.00006248     0.00919581
Ti      0.05203108    -2.85241262     8.52720442    -0.00396850     0.00005168    -0.01794065
Ti      1.90162187    -0.95093014     3.69058309    -0.00016069     0.00015324     0.00919633
O       1.90152919     2.85226264     5.74333683    -0.00008587    -0.00014887     0.01908633
O       3.77854497     4.75394859     0.78954998     0.00618659     0.00006608     0.00542066
O       1.90153770    -0.95089704     5.74333684    -0.00008587    -0.00000848     0.01908633
O       3.77855658     0.95080039     0.78955293     0.00618248     0.00006608     0.00543146
O      -1.90157475     2.85224570     5.55902953    -0.00019592    -0.00006453    -0.03101857
O       0.02454654     4.75396472     0.78952010    -0.00592485     0.00009565     0.00537129
O      -1.90156628    -0.95090265     5.55902949    -0.00019566    -0.00008767    -0.03101857
O       0.02456068     0.95081652     0.78951951    -0.00594928     0.00009539     0.00534121
O       4.05325300     2.85230937     8.86866733    -0.01426037     0.00019386    -0.01740072
O       5.70464868     4.75388731     3.95415936    -0.00001774    -0.00004911     0.00403612
O       4.05326141    -0.95082267     8.86866731    -0.01426011    -0.00003137    -0.01740072
O       5.70465116     0.95073910     3.95416233    -0.00000746    -0.00004937     0.00404409
O      -0.25026643     2.85230270     8.86869549     0.01469360     0.00013113    -0.01748119
O       1.90153856     4.75385834     4.13615007    -0.00013987    -0.00008305     0.00905826
O      -0.25025795    -0.95083293     8.86869553     0.01469360    -0.00002288    -0.01748145
O       1.90154673     0.95071012     4.13615024    -0.00014501    -0.00008305     0.00906083
O       1.90157335     0.95078004     8.14645602     0.00018461     0.00002288     0.02655539
O       3.79587229     2.85235595     3.20842845    -0.01236161     0.00000206     0.01229785
O       1.90158687    -2.85236830     8.14644821     0.00019463     0.00002314     0.02649857
O       3.79588080    -0.95078718     3.20842843    -0.01236187    -0.00005836     0.01229785
O       0.00723965     2.85236698     3.20840700     0.01220246     0.00002803     0.01232304
O       0.00724816    -0.95076882     3.20840699     0.01220220    -0.00003702     0.01232304
O       3.91333232     4.75376629     6.54741830    -0.00507073    -0.00002365     0.00015838
O       5.70472337     6.65550198     1.55987969    -0.00006479     0.00007045     0.02339113
O       3.91334313     0.95061804     6.54742105    -0.00503011    -0.00002340     0.00027408
O       5.70473178     2.85235449     1.55987973    -0.00006453     0.00009462     0.02339088
O      -0.11032647     4.75377268     6.54739248     0.00490772    -0.00003625     0.00046434
O       1.90152182     6.65547996     1.68114506    -0.00004011     0.00011724     0.01557138
O      -0.11033176     0.95062439     6.54740879     0.00481979    -0.00003625     0.00042732
O       1.90153024     2.85233324     1.68114508    -0.00004011     0.00017689     0.01557138
