# total energy = -39037.27896843 eV

CRYSTAL
PRIMVEC
        7.60600008     0.00000000     0.00000000
        0.00000000     7.60600008     0.00000000
       -3.79573973    -3.79573973     9.71340985
PRIMCOORD
46 1
Ti      1.88097244     4.87088444     6.03866560     0.91315334    -0.14585539    -0.07883314
Ti      3.84962400     6.84559502     1.24366602    -0.10332728     0.05919093     0.62823978
Ti      1.97437747     0.84341143     6.14108563    -1.43574825    -0.18648809    -1.26084863
Ti      3.90926899     2.81472300     1.26825398     0.57379433     0.10402816    -0.26018005
Ti     -1.86754557     4.60931345     6.14871261    -1.51470608    -0.36504125    -0.92573092
Ti      0.01232200     6.78937100     1.23205302    -0.45162884     0.17300702    -0.14106646
Ti     -1.99470957     0.81479644     6.06852464     0.97766003     0.91689301    -0.94150593
Ti      0.11912198     2.98757198     1.19925498    -1.03016506    -0.14220803    -0.05606061
Ti      3.74354047     0.97020347     8.52177963     0.97014160     0.90555315     0.66635691
Ti      5.76305998     2.84689402     3.61207400    -0.23348942    -1.15034258     0.17547297
Ti      3.64326143    -2.84195753     8.49473465     0.96144819     0.14502261     0.18165185
Ti      5.63611301    -1.06387900     3.65223601     0.43667247     1.35160449    -0.95225829
Ti     -0.02384155     0.94389246     8.36475263    -0.18683211    -0.02360865     0.74967945
Ti      1.91215199     2.72771102     3.51324200    -0.04891500     0.33921039     0.49675017
Ti     -0.01608858    -2.79719253     8.41618564    -0.41689348    -0.29555227     1.47981980
Ti      1.90596400    -1.02075402     3.54044901    -0.63741348     0.53567643     1.55202309
O       2.00322847    -0.93821153     5.65787960    -0.42633688    -0.49378106    -0.32503590
O       3.91345299     1.00786602     0.99846201    -0.11083850    -0.16463088    -1.36857121
O      -2.05502556     2.76206743     5.60846164     0.44032832     0.01122441     0.16787870
O       0.05929299     4.86729498     0.89553502     0.02976104    -0.02234135    -0.87037942
O      -2.07437355    -1.05117457     5.53398365     0.43061109    -0.11048651     2.38905940
O      -0.20455802     1.09231000     0.78829402     0.68832108    -1.21554681    -0.12472323
O       3.82159046     2.95636745     8.84423363    -0.42668141    -0.57890260     0.78059981
O       5.70310600     4.67187501     4.07815798    -0.16413209    -0.08259286    -0.31023868
O       3.80109744    -0.82269155     8.97360064     0.55558192    -0.85336385    -0.45090558
O       5.67510998     0.81077802     4.00726902     0.33335728     1.13706051     0.75937277
O       0.04638143     2.83083047     9.13662464     0.06632832    -0.80825255    -1.53856876
O       1.89936998     4.64793900     4.15885603     0.03049329    -0.04310816    -0.93914591
O       0.06207545    -0.95876456     8.98402664    -0.47817369     0.76641528    -0.89271512
O       1.80246699     0.98520998     4.01660202     0.08062185    -0.29534530     1.10691251
O       1.94780943     0.74877544     8.14869861    -0.83402092     1.13125753    -0.33936569
O       3.75199598     2.68955502     3.15453698     1.62806632     0.73063348     0.83870496
O       1.84022246    -2.88078957     8.03022360    -0.37816673     0.15069164     0.64427010
O       3.67905398    -0.72857399     3.28350298     1.81479301    -1.36203212    -0.12675518
O      -1.89232255     1.12965246     8.08106764    -0.04273818    -0.86247868    -0.45427553
O      -0.00017098     2.85169402     3.32046701     0.08804592     0.03483897    -0.86449545
O      -1.88644657    -2.83520555     8.07273463    -0.03201256     0.17742752    -0.16684126
O       0.01854401    -0.89965398     3.12815199    -0.64863146    -0.45715928     0.97357531
O       3.69472445     4.62367447     6.52892065     0.78811052     0.06704900    -0.34483288
O       5.68753199     6.62180999     1.68761298    -0.52717559    -0.49961747    -0.53812386
O       3.75975245     0.97059045     6.48716861     1.07731834     0.26169083     0.32260029
O       5.78794899     2.92843399     1.58572699    -0.81225550     0.75477590     0.67176703
O       0.00745844     4.49359747     6.40964960    -0.15529932     0.39751018     0.60654146
O       1.90191400     6.82001200     1.64372498     0.15238291    -0.50273107    -0.88347945
O       0.06959147     0.93711047     6.46662860    -0.95083775     0.14095564    -0.11595242
O       1.98090402     2.88801601     1.53743697    -0.99057160     0.36975048     0.07961321
