# total energy = -79406.55119178 eV

CRYSTAL
PRIMVEC
       10.35150501     0.00002646     0.00000000
        0.00002858    11.01713167     0.00000000
        0.00000000     0.00000000     9.26345890
PRIMCOORD
95 1
Ti      7.01562076     8.82515879     3.47153900     0.01352452     0.03974258     0.06033739
Ti      7.14507217     3.23162934     3.42125956     0.04073760    -0.02298901    -0.05206049
Ti      1.84565562     8.81282774     3.45707279     0.04034654    -0.04403787    -0.09000664
Ti      1.76963906     3.14680478     3.50014665     0.05978383     0.01499674    -0.02886373
Ti      8.48336286     7.73020781     5.79846156     0.08318139    -0.03408796     0.03739825
Ti      8.50170786     2.22245761     5.83115295    -0.07217783     0.01889967     0.01940207
Ti      3.28246251     7.71984681     5.81312202     0.02688938    -0.12350196    -0.05023860
Ti      3.32672228     2.20312295     5.82929836     0.07735372    -0.02009858     0.09414766
Ti      9.53637678     7.77819914     1.20470411    -0.02366958    -0.05546206    -0.03103220
Ti      9.66190197     2.17615610     1.15490406     0.04549877     0.07442189     0.02577403
Ti      4.46746295     7.69539013     1.21615625    -0.12989501    -0.06157614     0.03642483
Ti      4.48533731     2.23702595     1.21190600    -0.11219527    -0.01723488     0.01076778
Ti      5.89876640     8.81187782     8.10227559    -0.01691144     0.01543794     0.06977308
Ti      5.92097542     3.29051830     8.08667706    -0.01577681     0.02247711     0.04976732
Ti      0.67313579     8.89691899     7.94925668    -0.01963629     0.08982949    -0.07135765
Ti      0.73076967     3.29825945     8.07537171     0.04947730     0.06140799    -0.01308075
Ti      7.03031205     6.02378491     1.18929332    -0.06584109    -0.00041472    -0.01431231
Ti      7.02839781     0.53976822     1.23006832    -0.03622069    -0.00744952    -0.07417275
Ti      1.74242445     6.29284875     0.95443173     0.01982064    -0.01705336     0.05209957
Ti      1.88133427     0.51428335     1.16506763     0.00643856    -0.00716875    -0.04966833
Ti      8.41791555    10.47675692     8.10297952    -0.05505197    -0.00374816     0.06155789
Ti      8.50768648     4.95658532     8.09122956     0.01871815    -0.02565525     0.01628332
Ti      3.33002600    10.46614365     8.09700160    -0.00877158    -0.03789396    -0.04131327
Ti      3.31100365     4.95306139     8.08119283    -0.06876212    -0.05825993    -0.00820645
Ti      5.89968080     6.13614835     5.96257408    -0.01315120     0.12180246     0.05832447
Ti      5.90068284     0.54896870     5.82961196    -0.04149222    -0.02215649    -0.03256895
Ti      0.73369188     6.02457338     5.81116102     0.01189161     0.05603567    -0.07485255
Ti      0.70295904     0.52089718     5.85421086    -0.02083340    -0.07766097    -0.01322550
Ti      9.63529795    10.48946287     3.44619423    -0.00207180     0.02439798    -0.09295493
Ti      9.65754942     5.00172345     3.38978375     0.06697649    -0.03486649    -0.01372867
Ti      4.43055684    10.47337091     3.45597393     0.01973040    -0.05329436    -0.04514576
Ti      4.73400222     4.92471583     3.63782298    -0.03406430    -0.01884542    -0.09046764
O       6.82416738     7.44514683     4.74334163    -0.04517147     0.02653277    -0.06096808
O       6.83127172     1.93142515     4.72557462    -0.04242836    -0.03953587     0.00527179
O       1.63730605     7.45504742     4.74645884    -0.00147196    -0.01813348    -0.04166603
O       1.60406965     1.88473120     4.72230355    -0.03677142    -0.04829845     0.01217109
O       8.72021541     9.08511980     4.54123251    -0.01976536    -0.04076717     0.00435134
O       8.75280302     3.56565312     4.53814212     0.00152261    -0.00096648    -0.02604606
O       3.52927052     9.08375178     4.54369263    -0.01584186    -0.00280148    -0.02804252
O       3.47233602     3.63505664     4.37358940    -0.14754384    -0.00195352     0.02413084
O       6.11082942     7.41367100     0.11885616    -0.06609769     0.05854893    -0.02066885
O       6.12213720     1.91672387     0.08476657     0.01676977     0.02667700     0.06062972
O       0.89464049     7.47765187    -0.03011736    -0.03335956     0.02430362     0.02948157
O       0.94881521     1.91474006     0.08367930     0.02238069     0.04075406     0.00965347
O       9.37968807     9.11670973     9.16112217     0.00922152    -0.05808973     0.01472908
O       9.41505631     3.56652170     9.16451995    -0.01202660     0.02821170    -0.00020749
O       4.20567258     9.05606201     9.18782892    -0.02031249     0.06658594     0.01395698
O       4.23261363     3.57503195     9.17992167     0.07631191    -0.00801979     0.01788306
O       8.70620479     6.32800883     0.10664396    -0.02168598     0.00881657    -0.05861783
O       8.69374974     0.82503051     0.09259441     0.03019119    -0.03287414    -0.02205904
O       3.53296619     6.32271776     0.08470750     0.02829346    -0.02362562     0.00971723
O       3.53602631     0.81269465     0.11520593     0.01282210     0.03652716     0.01247268
O       6.78950888    10.18804783     9.19071622     0.08623149    -0.02594347    -0.03361307
O       6.82766505     4.66607574     9.17109163    -0.01416267     0.00066643     0.05293672
O       1.62487498    10.19589328     9.17086850    -0.01093876     0.10877570    -0.02050764
O       1.66154263     4.68199889     9.20977057     0.00327070    -0.11635249    -0.04362907
O       9.41489494     6.30998721     4.72220139     0.00641028     0.00143468    -0.01309643
O       9.39715116     0.81413239     4.73024803     0.07975694    -0.01629591     0.04598728
O       4.23197103     6.33148985     4.74584554     0.08649760    -0.01537263     0.05137272
O       4.20666031     0.83617833     4.70706044     0.04927804     0.06255085     0.01404157
O       6.11129055    10.19805336     4.54621845     0.01422026     0.01430151     0.00756496
O       6.20997478     4.69865227     4.60496666     0.01953782    -0.05810258     0.06909380
O       0.94710511    10.18316828     4.53780630    -0.03669043    -0.02818779     0.06711996
O       1.04561722     4.74483311     4.43062090    -0.12897455    -0.05900710     0.02802812
O       5.34704221     8.84088118     2.51347625     0.03827860    -0.01433673    -0.00014372
O       5.42091225     3.35414410     2.51523148     0.05560707    -0.05798045     0.01915293
O       0.19265824     8.86095187     2.47423806    -0.01193352     0.02846084     0.04268804
O       0.16981292     3.37079978     2.47856905    -0.02609156    -0.01054975    -0.05712633
O      10.17217111     7.66730879     6.73642124    -0.01648129     0.00198386    -0.00355918
O      10.17957269     2.14110742     6.77018640    -0.03430444    -0.03391903    -0.02850712
O       4.97983629     7.65734808     6.79025021    -0.00328664    -0.02434450    -0.00307581
O       4.96491072     2.16709028     6.74486020     0.04194165     0.04849719    -0.03120678
O       7.92932214     7.67029808     2.13492032    -0.03768262     0.00349002     0.04610838
O       7.96487031     2.12290499     2.14039230     0.06025820    -0.01863639    -0.02905810
O       2.74835501     7.51703123     2.15586512    -0.00720423     0.06506539     0.04281660
O       2.78510444     2.27232004     2.12013413    -0.04778346    -0.06394464    -0.03130242
O       7.54959574     8.84549961     7.13430073     0.01027876     0.06693715     0.03150245
O       7.58471580     3.34429532     7.12566744    -0.01266294     0.07245294     0.06892153
O       2.38174470     8.88450281     7.12354679    -0.00149844     0.03590958    -0.04561961
O       2.39481063     3.35216526     7.10121732     0.09970125     0.06752696     0.03369689
O       5.32880762     6.04411356     2.14814701     0.06965172     0.04905435    -0.01147638
O       5.35990714     0.59113012     2.14276149     0.01047725     0.01785966    -0.00462644
O       0.19893799     6.14580724     2.08910917     0.07597844    -0.00282102    -0.02131677
O       0.20829957     0.61549645     2.15206247    -0.00825710     0.00366562    -0.01279279
O      10.12219973    10.42639917     7.11282492     0.03738488    -0.08945231     0.05224329
O      10.18082230     4.88643486     7.11565189    -0.00427292     0.06595859    -0.02130674
O       4.98433532    10.41689707     7.14382063     0.00296911     0.00203889    -0.01946532
O       5.00015850     4.89532455     7.13449508    -0.02733778     0.02552901     0.04610967
O       7.58458766     6.10501459     6.79509736    -0.01395312     0.01985741    -0.01848033
O       7.55242409     0.60121025     6.77032533     0.04585487    -0.01411459     0.02600158
O       2.39572797     6.10414558     6.77590676    -0.01124498     0.01164530    -0.01408477
O       2.40999132     0.62055098     6.74197850     0.01338363     0.04399725     0.05363555
O       7.95417827    10.40943299     2.50782841    -0.04243607    -0.00859957    -0.02631088
O       7.97324586     4.91201973     2.49750333    -0.01021294    -0.03712854     0.01094956
O       2.77201987    10.38928545     2.48360563     0.02155948     0.03954641     0.01936093
