# total energy = -19518.68461275 eV

CRYSTAL
PRIMVEC
        7.60600008     0.00000000     0.00000000
        0.00000000     7.60600008     0.00000000
       -1.89786986    -1.89786986     4.85670466
PRIMCOORD
23 1
Ti      3.81480800     6.58022502     1.19843301     0.79006636    -0.62228381     0.26639107
Ti      3.85721700     2.81389997     1.21344402     0.01889144     0.62281012     0.27069458
Ti      0.06306200     6.79826599     1.26274101    -1.23563201    -1.31742938    -0.66317774
Ti      0.00328000     2.86091600     1.12264700    -0.12915530     1.89585787     0.75532097
Ti      5.64992622     2.88304921     3.62677682    -0.83212808    -0.09784748     2.09556452
Ti      5.66954621    -0.97684078     3.62494984    -0.08464178     0.19293411    -0.55076341
Ti      1.93807622     2.81156323     3.55417682     0.76643611    -0.35286887     1.28156710
Ti      1.89105322    -1.04660777     3.70059879     0.23150247     0.52841357    -0.10894462
O       4.02640201     4.69694499     0.68544297    -0.57637161     0.76521689     1.19935014
O       3.90615002     0.92143200     0.86497202    -0.39291125     0.05532270    -1.00521069
O      -0.17757098     4.70501500     0.83357202     0.95226523     1.42379184     0.31439564
O      -0.18395402     1.03021000     0.69176902     0.76230820    -1.81870906     1.21052647
O       5.70891123     4.73229721     4.06000582     0.83781073     0.51009317     0.50966483
O       5.53723221     0.99257724     4.11110879     0.63024061    -0.36107686    -1.72592691
O       1.71690125     4.66932321     4.03163382    -0.25669286     0.92534757     0.30330518
O       1.86804925     0.96456820     4.03759083    -0.29774851    -1.14134603    -0.08530872
O       3.80789223     2.97175222     3.23920582    -0.53748983    -0.26713438    -0.76431778
O       3.79463020    -1.12947476     3.31187281    -0.81566067     0.19645395    -0.93858079
O      -0.02341080    -0.91078379     3.20282684     1.11236043     0.03632687     0.41851327
O       5.73051098     6.82881301     1.69966198    -0.77927029    -0.53912557    -0.56705907
O       5.72889598     2.92854400     1.80759498     1.01513490    -0.53627678    -1.74808366
O       1.95006002     6.63439700     1.58155998    -0.47785873     0.10502420     0.58500101
O       1.90463503     2.89378902     1.66364501    -0.70145608    -0.20349466    -1.05292164
