# total energy = -4986.57872927 eV

CRYSTAL
PRIMVEC
        4.19180697     0.00000000     0.00000000
        1.22986123     4.00732916     0.00000000
       -2.71087193    -2.00369254     5.41226904
PRIMCOORD
6 1
Ti      0.92226765     3.00565050     1.35306694     0.00072222    -0.00072222     0.00000000
Ti      1.78852836    -1.00201407     4.05920129    -0.00072222     0.00072222     0.00000000
O       0.30750915     1.00182673     0.88161425    -0.00061732    -0.00122565    -1.39628154
O       2.40328667     1.00180960     4.53065398     0.00061732     0.00122565     1.39628154
O      -0.30747687    -1.00180287     3.58774860    -0.00122565    -0.00061732    -1.39628154
O       3.01827267     3.00543909     1.82451969     0.00122565     0.00061732     1.39628154
