# total energy = -4986.30777792 eV

CRYSTAL
PRIMVEC
        3.85685653     0.00000000     0.00000000
        0.00000000     3.25398552     0.00000000
        0.00000000    -0.00007350     5.10829722
PRIMCOORD
6 1
Ti      1.92842816     1.62695596     2.55414877     0.00000000     0.00000000     0.00000000
Ti      0.00000000     0.00000000     0.00000000     0.00000000     0.00000000     0.00000000
O       1.92842816     0.63413952     0.99553194     0.00000000    -0.79823861     0.35896830
O       1.92842816     2.61977245     4.11276555     0.00000000     0.79823861    -0.35896830
O       0.00000000     0.99278715     3.54968169     0.00000000     0.79740917     0.36093751
O       0.00000000     2.26112477     1.55861585     0.00000000    -0.79740917    -0.36093751
