# total energy = -4989.39500142 eV

CRYSTAL
PRIMVEC
        3.11904481     0.00000000     0.00000000
        0.48748852     4.86270120     0.00000000
       -0.00000325    -0.00006342     4.89321109
PRIMCOORD
6 1
Ti      1.80326510     2.43131889     2.44660555     0.00000000     0.00000000     0.00000000
Ti      0.00000000     0.00000000     0.00000000     0.00000000     0.00000000     0.00000000
O       1.65452611     0.94765653     0.95361476     0.05116292    -0.36447638    -0.40228086
O       1.95200414     3.91498125     3.93959627    -0.05116292     0.36447638     0.40228086
O       0.14873766     1.48363666     3.40022130    -0.05101173     0.36411617    -0.40193556
O       0.33874783     3.37900101     1.49298974     0.05101173    -0.36411617     0.40193556
