# total energy = -4987.88256318 eV

CRYSTAL
PRIMVEC
        3.45337016     0.00000000     0.00000000
        0.00000000     3.60727553     0.00000000
        0.00000000    -0.00006305     4.69697293
PRIMCOORD
6 1
Ti      1.72668492     1.80360619     2.34848641     0.00000000     0.00000000     0.00000000
Ti      0.00000000     0.00000000     0.00000000     0.00000000     0.00000000     0.00000000
O       1.72668492     0.70299257     0.91537082     0.00000000    -0.74757500    -0.61123809
O       1.72668492     2.90421981     3.78160195     0.00000000     0.74757500     0.61123809
O       0.00000000     1.10058839     3.26385826    -0.00000000     0.74737934    -0.61070690
O       0.00000000     2.50662399     1.43311456    -0.00000000    -0.74737934     0.61070690
