# total energy = -4986.39144330 eV

CRYSTAL
PRIMVEC
        3.50696081     0.00000000     0.00000000
        0.86324409     3.39905631     0.00000000
       -2.18513439    -1.69955299     4.51159538
PRIMCOORD
6 1
Ti      0.64731919     2.54942240     1.12789877     0.00131203    -0.00127424    -0.00187433
Ti      1.53775149    -0.84991895     3.38369632    -0.00131203     0.00127424     0.00187433
O       0.21584780     0.84975924     0.73490197     0.00060755     0.00178743     0.71495232
O       1.96922273     0.84974413     3.77669312    -0.00060755    -0.00178743    -0.71495232
O      -0.21582274    -0.84973975     2.99069952     0.00176043     0.00056024     0.71261390
O       2.40089326     2.54924306     1.52089558    -0.00176043    -0.00056024    -0.71261390
