# total energy = -39034.45032108 eV

CRYSTAL
PRIMVEC
        5.93200024     0.00000000     0.00000000
        0.00000000     9.29399984     0.00000000
        0.00000000     0.00000000     9.29399984
PRIMCOORD
46 1
Ti      4.41779097     7.16713402     6.94394399     0.77996757    -0.98014474    -0.35678826
Ti      4.43015298     6.76070198     2.43224300    -0.40620822     0.97455516    -0.01906088
Ti      4.44655800     2.18789398     7.12252999    -0.43625929     0.28285822    -0.83383015
Ti      4.23684098     2.73476300     2.01099299     0.52298495    -2.22602852     1.24296043
Ti      1.50816299     6.88143699     7.00705700    -1.16157856    -0.43230827    -0.19172055
Ti      1.44670599     7.08564702     2.25458100     0.65696338    -0.70230017    -0.96054933
Ti      1.45711602     2.45606899     6.79883602     0.35240504     0.08778572     0.43284795
Ti      1.26447200     1.92918599     2.80002600     1.53575545     0.82564709    -0.81114838
Ti      3.01304599     4.59970100     4.67159100    -0.10321980     1.00093623     0.40898065
Ti      3.01198298     4.77793499     9.05507398    -1.20390228    -0.33061494    -0.22835750
Ti      3.02503799     9.20047803     4.58019298     1.82130228     0.67703111     0.44431302
Ti      2.96614702     0.05109000     0.05467999    -0.15052940    -0.12501480     0.24920118
Ti      0.00932199     4.60460801     4.56113101     0.29343034     0.75219785     1.21755767
Ti      0.00467602     4.71462798     0.07653300     1.38202837     0.85480110    -1.53631313
Ti      0.08831402     9.10461000     4.78114498    -2.13544852     0.48351104     0.11309027
Ti      0.02679198     0.09379598     0.02421499     0.07671532    -0.42415993     0.38842518
O       4.53718802     5.59553400     5.56520902    -0.61161373    -0.60051299    -1.03258832
O       4.35948199     5.66123898     0.75988599     1.37232605    -1.06548714     1.15917869
O       4.41680099     0.74722601     5.56024201     0.14448911     0.74787917     0.33095201
O       4.50431399     1.15210698     0.79629899    -0.94990290    -0.44473828     0.14056946
O       1.37782198     5.64600597     5.53689000     0.81373877    -0.87573503    -0.16754266
O       1.60059603     5.73357200     0.64963403    -1.00318620    -0.45020856     1.42759373
O       1.41862001     0.85825898     5.52526900     0.92325289     1.05252312    -0.58715148
O       1.52753998     0.88009199     1.01073299    -0.12432445    -0.03973744     1.06022306
O       4.50891302     8.36510998     8.36635302    -0.45782828     1.25818677     0.87091498
O       4.49224399     8.13421799     3.91427602    -0.46568609     0.57785334    -0.57837270
O       4.46345400     3.80054598     8.27818600     0.68999153    -0.94956660     0.57544575
O       4.42843601     3.83161901     3.66826299    -0.26777484    -0.19319096    -0.97807680
O       1.46628899     8.47046102     8.50889898     0.65099996    -0.75491216    -0.55643527
O       1.48459000     8.29286797     3.81308801     0.13508015     0.29881886    -1.32564406
O       1.50985599     3.88922799     8.26889900    -0.59054225    -0.95192327     0.10791027
O       1.52383098     3.60735702     3.78716103    -0.13999688     0.04378822     0.22892211
O       3.08474802     6.06653901     7.70867502    -0.57511820    -0.07816105     0.41093263
O       2.85623902     5.99135800     3.16745203     0.41078068    -0.22881850     0.20490491
O       2.80467499     1.51645197     7.95489897     1.33157559    -0.27308391    -0.60135066
O       3.14964500     1.57529998     3.18457599    -0.73286340    -0.76638212    -0.36292960
O       0.01716101     6.08748098     7.88075500    -0.40217288    -0.05828436     0.37808446
O       0.14364702     5.90294000     3.12678401    -0.34510234     0.47303251    -0.73276184
O       0.08621001     1.48013798     7.92871999    -0.35618765     0.18670741    -0.64357076
O       2.85877299     7.89785298     6.10714098     0.49685044     0.74141104    -0.48449346
O       3.18732898     7.86594200     1.49372799    -1.67019797     0.93443745    -0.27219868
O       3.08343402     3.15977599     5.90633298    -0.72305284    -0.29266107     1.19264984
O       0.03592801     7.95148298     6.14251500     0.71238096    -0.84759892     0.80856031
O       5.82170102     7.86701401     1.50678899     0.97132894     0.42784895    -0.12068686
O       5.88073202     3.12335902     5.89927698     0.01600384    -0.25848364     0.92520719
O       0.15885102     2.93125900     1.70909101    -1.07765464     1.66824676    -0.93785419
