# total energy = -4985.00175798 eV

CRYSTAL
PRIMVEC
        3.39700051     0.00000000     0.00000000
        0.00000000     5.32259052     0.00000000
        0.00000000    -0.00006907     5.32259052
PRIMCOORD
6 1
Ti      1.69850019     2.66126066     2.66129520     0.00000000     0.00000000     0.00000000
Ti      0.00000000     0.00000000     0.00000000     0.00000000     0.00000000     0.00000000
O       1.69850019     1.03728102     1.03729448     0.00000000    -0.85887553    -0.85887553
O       1.69850019     4.28524030     4.28529592     0.00000000     0.85887553     0.85887553
O       0.00000000     1.62395164     3.69859076    -0.00000000     0.85987569    -0.85987569
O       0.00000000     3.69856969     1.62399964    -0.00000000    -0.85987569     0.85987569
