# total energy = -4987.73954865 eV

CRYSTAL
PRIMVEC
        2.79663643     0.00000000     0.00000000
        0.65361039     4.33288921     0.00000000
       -0.00000410    -0.00005688     4.39435576
PRIMCOORD
6 1
Ti      1.72512111     2.16641608     2.19717783     0.00000000     0.00000000     0.00000000
Ti      0.00000000     0.00000000     0.00000000     0.00000000     0.00000000     0.00000000
O       1.52569633     0.84440515     0.85639518    -2.28822867     1.24217162     1.31372467
O       1.92454588     3.48842702     3.53796042     2.28822867    -1.24217162    -1.31372467
O       0.19942299     1.32198789     3.05357395     2.28849478    -1.24266913     1.31418902
O       0.45418289     3.01084437     1.34078166    -2.28849478     1.24266913    -1.31418902
