# total energy = -4977.20180231 eV

CRYSTAL
PRIMVEC
        4.89655332     0.00000000     0.00000000
       -0.00000741     2.93793199     0.00000000
       -2.44830424    -1.46901959     5.33255777
PRIMCOORD
6 1
Ti     -0.00020989     2.20355342     1.33313909    -0.00865871    -0.01066751    16.02412640
Ti      2.44845139    -0.73464113     3.99941803     0.00865871     0.01066751   -16.02412640
O       0.00005186     0.73447356     0.86862997     0.00660080     0.01106706    -8.98724970
O       2.44818954     0.73443868     4.46392719    -0.00660080    -0.01106706     8.98724970
O      -0.00002017    -0.73448334     3.53490886    -0.00225871    -0.00008382    -1.94071464
O       2.44826151     2.20339552     1.79764826     0.00225871     0.00008382     1.94071464
