# total energy = -4988.15934920 eV

CRYSTAL
PRIMVEC
        3.75370709     0.00000000     0.00000000
       -0.00000758     3.39621155     0.00000000
       -1.87688003    -1.69813987     4.57387802
PRIMCOORD
6 1
Ti     -0.00016409     2.54728627     1.14346928     0.00040623    -0.00387748     3.66755326
Ti      1.87698327    -0.84921449     3.43040819    -0.00040623     0.00387748    -3.66755326
O       0.00003814     0.84904649     0.74504728     0.00088755     0.00439607     0.45575160
O       1.87678089     0.84902519     3.82883029    -0.00088755    -0.00439607    -0.45575160
O      -0.00001925    -0.84903462     3.03198618     0.00050445    -0.00010027     1.42643648
O       1.87683828     2.54710626     1.54189138    -0.00050445     0.00010027    -1.42643648
