# total energy = -19518.88375337 eV

CRYSTAL
PRIMVEC
        7.60600008     0.00000000     0.00000000
        0.00000000     7.60600008     0.00000000
       -1.89786986    -1.89786986     4.85670466
PRIMCOORD
23 1
Ti      3.76540798     6.68001001     1.15800598     1.00215005    -0.50632496    -0.43468835
Ti      3.85387800     2.84425998     1.22093199    -0.23251549     0.13400800     1.28216488
Ti      0.03307199     6.69555798     1.25345199    -1.49489110     0.87577668    -0.12601007
Ti     -0.00882498     2.91553799     1.16883200     0.80998881    -0.84817588     0.23716816
Ti      5.68379823     2.92877425     3.68641383    -0.90986284    -0.43875660    -0.80398040
Ti      5.59127021    -0.94173680     3.60567381     0.94933340     0.27069484     0.26948359
Ti      1.97707722     2.73067521     3.67388079     1.10829783     1.03980130    -0.67035961
Ti      1.90500323    -0.97172178     3.59015379    -0.83934928    -0.93001104     0.29282125
O       3.95696998     4.69393699     0.79180501    -0.67510355     0.07871949    -0.48852547
O       3.83363300     0.90791301     0.97769302    -0.13252756    -0.06921232    -1.28403716
O      -0.03143302     4.79267702     0.71648700     0.58444822     0.08814388     1.13172830
O       0.03841398     0.98311100     0.83975000     0.03381413    -1.32612279    -0.34075588
O       5.54663220     4.76569824     4.07818782     0.84099839     0.78110632    -0.21509703
O       5.52698724     0.95675924     4.17568582     0.20513966     0.01077447    -2.10172386
O       1.93681620     4.72350821     4.02056682    -0.84790540     0.46240510     0.42571416
O       1.96420721     0.88932020     4.06586080    -0.17160474    -0.08608597    -0.30095391
O       3.84823120     2.96267022     3.16224783    -0.53105976    -0.41433446     0.12606612
O       3.73268424    -1.03142176     3.11716479     0.39309662     0.37428283     0.89290795
O      -0.05497675    -0.76499879     3.25192882     0.50002036    -0.64703198    -0.25722405
O       5.69148601     6.54068701     1.62134602    -0.09650691     0.40366900     0.50925602
O       5.79496799     2.76880301     1.61833600    -0.04090472     0.22194568     0.92083400
O       1.86445698     6.47985898     1.60600400     0.21290053     0.28489376     0.26000522
O       1.90442500     2.79149302     1.61910400    -0.66795588     0.23983465     0.67520562
