# total energy = -4985.59885860 eV

CRYSTAL
PRIMVEC
        3.44292445     0.00000000     0.00000000
        0.17203133     3.43862385     0.00000000
       -1.80750846    -1.71934100     4.39531197
PRIMCOORD
6 1
Ti      0.12888442     2.57909846     1.09882787     0.00220215    -0.00214533     0.00246440
Ti      1.67856247    -0.85981603     3.29648386    -0.00220215     0.00214533    -0.00246440
O       0.04304405     0.85965034     0.71596038     0.00078316     0.00389677     2.30976424
O       1.76440269     0.85963200     3.67935140    -0.00078316    -0.00389677    -2.30976424
O      -0.04302707    -0.85963419     2.91361637     0.00393148     0.00067234     2.31410400
O       1.85047381     2.57891648     1.48169546    -0.00393148    -0.00067234    -2.31410400
