# total energy = -19922.02805748 eV

CRYSTAL
PRIMVEC
        6.31441806     0.00000000     0.00000000
        0.00003461     6.72045032     0.00000000
        0.00000000     0.00000000    11.30141986
PRIMCOORD
24 1
Ti      2.28869335     3.98253264     4.19274624     0.04501001    -0.90029499     0.63794544
Ti      4.02575931     2.73791774     7.10867394    -0.04501001     0.90029499    -0.63794544
Ti      5.44579183     2.73792005     1.45791869     0.04481409     0.90096528    -0.63795238
Ti      0.86866083     3.98253059     9.84350162    -0.04481409    -0.90096528     0.63795238
Ti      2.28867617     0.62230761     1.45796401     0.04501001    -0.90029499    -0.63794544
Ti      4.02577649     6.09814297     9.84345630    -0.04501001     0.90029499     0.63794544
Ti      0.86864366     0.62230511     7.10862862    -0.04481409    -0.90096528    -0.63795238
Ti      5.44580901     6.09814547     4.19279156     0.04481409     0.90096528     0.63795238
O       1.99856537     2.36638487     5.76702817     1.40900465     1.30095374     0.01276965
O       4.31588730     4.35406558     5.53439202    -1.40900465    -1.30095374    -0.01276965
O       1.15870495     2.36641193     0.11635446    -1.40893497     1.30103370     0.01226828
O       5.15574778     4.35403852    11.18506541     1.40893497    -1.30103370    -0.01226828
O       4.31587012     0.99384036     0.11631779    -1.40900465    -1.30095374     0.01276965
O       1.99858254     5.72661003    11.18510208     1.40900465     1.30095374    -0.01276965
O       5.15573060     0.99381329     5.76706484     1.40893497    -1.30103370     0.01226828
O       1.15872200     5.72663716     5.53435535    -1.40893497     1.30103370    -0.01226828
O       0.22943844     4.08775886     3.05279552     0.49623955    -0.28751295     0.33247359
O       6.08501423     2.63269152     8.24862466    -0.49623955     0.28751295    -0.33247359
O       3.38665253     2.63262889     2.59795050     0.49587908     0.28771555    -0.33252681
O       2.92780014     4.08782149     8.70346949    -0.49587908    -0.28771555     0.33252681
O       0.22942126     0.72753364     2.59791441     0.49623955    -0.28751295    -0.33247359
O       6.08503140     5.99291675     8.70350558    -0.49623955     0.28751295     0.33247359
O       2.92778296     0.72759627     8.24866069    -0.49587908    -0.28771555    -0.33252681
O       3.38666970     5.99285411     3.05275943     0.49587908     0.28771555     0.33252681
