# total energy = -4861.86986899 eV

CRYSTAL
PRIMVEC
        5.53358065     0.00000000     0.00000000
       -0.00000684     1.84452688     0.00000000
       -2.76682554    -0.92238346     6.27740442
PRIMCOORD
6 1
Ti     -0.00023682     1.38343915     1.56935072    -0.07270003    -0.04711240   135.51005240
Ti      2.76698493    -0.46129578     4.70805278     0.07270003     0.04711240  -135.51005240
O       0.00005842     0.46111173     1.02253772     0.07128720     0.04582273  -130.96558963
O       2.76668953     0.46103159     5.25486583    -0.07128720    -0.04582273   130.96558963
O      -0.00002539    -0.46118919     4.16123978    -0.00087083    -0.00105492    -0.35688725
O       2.76677324     1.38333246     2.11616377     0.00087083     0.00105492     0.35688725
