# total energy = -19072.39788777 eV

CRYSTAL
PRIMVEC
        5.17600016     0.00000000     0.00000000
        0.00000000     5.50899976     0.00000000
        0.00000000     0.00000000     9.26300011
PRIMCOORD
22 1
Ti      1.75212900     3.24471302     3.36274600     0.84700011     2.32653452    -0.14937241
Ti      3.56789903     2.14854002     5.99972800     0.04618937     0.07206342    -1.11737177
Ti      4.39754301     2.23622098     1.41824901    -1.33677462     0.13307341    -2.66135141
Ti      0.89688998     3.13806200     7.98128301     0.20898371     0.07925480    -0.29456883
Ti      1.71776301     0.56812798     1.21778201     1.82816995    -0.85791317    -0.99422848
Ti      3.38544601     5.04634999     7.99864299    -0.52893217     2.51448352     0.60999394
Ti      0.73643899     0.19674397     6.06072499     1.16743733    -0.27774584    -0.44187484
Ti      4.39589002     4.93452901     3.42082601    -0.76967467    -0.83610917     0.06141185
O       3.46360401     3.36946899     4.36823998     0.41127767    -0.35344223     0.72797188
O       1.07678601     2.03147902     0.24047100    -1.58691708    -0.31377909    -1.16875014
O       4.42028700     3.72581700     8.67407001    -0.36959159    -0.48016038     0.33837273
O       3.65697501     0.95827697     0.14958698    -0.92643978    -0.44846869     0.54467298
O       1.79144602     4.73373302     8.96657501    -0.69189234    -0.12584449     0.31784812
O       4.33751198     0.67717500     5.01344299    -0.72538175     0.04713965    -1.22508663
O       1.12075402     4.82774798     4.22862498    -1.45571210    -0.11699964     0.30391196
O       0.13876599     3.77017401     2.16627402     0.45141852    -0.89812266     0.64172059
O       4.82091302     1.26939499     7.24676102     0.29996840     0.67263246    -0.25251996
O       2.46538802     2.26729401     1.98290299     2.22029341    -1.45786077     1.03293594
O       1.91143702     4.23945200     6.51822698     0.77320454    -1.57652134     1.93145223
O       0.03444600     0.92852700     2.33879802     0.88895359    -0.22125302     0.74214946
O       2.22215402     1.27791300     6.94770602    -0.43823853     0.66889536    -0.27804845
O       2.88018599     4.69913002     2.18975700    -0.31334149     1.45014360     1.33073124
