# total energy = -19958.76634485 eV

CRYSTAL
PRIMVEC
        7.60600008     0.00000000     0.00000000
        0.00000000     7.60600008     0.00000000
       -1.89786986    -1.89786986     4.85670466
PRIMCOORD
24 1
Ti      3.86843403     6.61481199     1.18888602     0.83559521     0.02929876    -1.15639136
Ti      3.75184802     2.74260900     1.24767200     0.78827867    -0.54971826    -0.24099627
Ti     -0.04890598     6.83043298     1.26113199    -0.87242525    -2.33507599    -1.33587859
Ti      0.05007700     2.93891201     1.21948998    -0.84345713     2.54975624     0.19973597
Ti      5.67920423     2.94548021     3.56832681    -1.95714271     1.66573402     0.98492211
Ti      5.73874323    -0.73304776     3.72781983    -2.15504702    -2.10363933    -1.84113835
Ti      1.78516723     2.62537222     3.59811981     2.93279316     0.88230549     1.79126921
Ti      1.95043722    -1.00679877     3.52030980     1.51484287    -2.08245241     1.46598752
O       4.05005798     4.51362698     0.74715901    -2.00519124     0.88710985    -0.94640363
O       4.04676898     0.85311702     0.75902200    -1.10962426     0.44067130    -0.12594451
O      -0.07297799     4.86376002     1.03131100     0.88333521    -2.05378588    -0.95896527
O      -0.19429600     1.07065602     0.96214399     0.67456156    -0.08054884    -1.59184898
O       5.26776225     4.74169725     4.15219580     2.10005239     0.45508569    -0.05551399
O       5.53339224     1.07723724     4.04669580     0.97141713    -0.49664527     0.73633748
O       2.33607821     4.61567421     4.13866479    -2.40924643     0.27525238    -0.53146933
O       2.05148822     0.74014821     3.89129083    -1.31942995     2.23801912     0.73529490
O       3.59486320     2.74273225     3.15360282     1.77209597    -0.23145079     0.00100942
O       3.90503023    -0.86947579     3.20188781     0.27867606    -0.06850193     0.19609785
O      -0.04340180     2.94481721     3.15318181     0.08608854    -0.02963429     0.96783609
O       0.04176420    -0.92114477     3.13199683    -1.33697594     0.07236475     2.22401483
O       5.67727702     6.61256701     1.61896202     1.63250379     0.33032003     1.63281695
O       5.55765301     2.91432199     1.75360599     2.26655298    -0.40077420    -0.05616474
O       1.96368703     6.58255800     1.65035001    -0.27427819     0.11412026    -1.37839720
O       1.91176601     2.59780198     1.56101002    -2.45397464     0.49219006    -0.71621036
