# total energy = -4987.62044151 eV

CRYSTAL
PRIMVEC
        4.03704193     0.00000000     0.00000000
       -0.00000752     3.30303412     0.00000000
       -2.01854790    -1.65155480     4.73109550
PRIMCOORD
6 1
Ti     -0.00017522     2.47739869     1.18277400    -0.00231477    -0.00502111     6.55383541
Ti      2.01866173    -0.82591958     3.54832165     0.00231477     0.00502111    -6.55383541
O       0.00004164     0.82575158     0.77065685     0.00167456     0.00535278    -1.19153501
O       2.01844476     0.82572743     3.96043885    -0.00167456    -0.00535278     1.19153501
O      -0.00001953    -0.82574406     3.13620450    -0.00089114    -0.00022574     0.36077373
O       2.01850583     2.47722307     1.59489115     0.00089114     0.00022574    -0.36077373
