# total energy = -19517.32045390 eV

CRYSTAL
PRIMVEC
        7.60600008     0.00000000     0.00000000
        0.00000000     7.60600008     0.00000000
       -1.89786986    -1.89786986     4.85670466
PRIMCOORD
23 1
Ti      3.78589301     6.76013501     1.24593900     0.08968243     1.22086976    -0.04005240
Ti      3.79180001     2.93650600     1.14836602     0.93265362    -1.82284648     2.25290376
Ti      0.03957399     6.58079901     1.07864702     0.00881323     0.74417883     0.96977548
Ti     -0.05630102     2.76493102     1.12499702    -0.21269896    -1.21602940     0.91493408
Ti      5.70235520     2.70997221     3.77067382    -1.91692781     0.25269223    -1.50378378
Ti      5.76241624    -1.05792375     3.52944583    -0.22516676     0.39901453     0.57357425
Ti      2.06765623     2.94401423     3.82882580     1.38012858     0.11298717    -1.93275398
Ti      1.92509921    -0.83680476     3.64186382    -0.27646903    -0.54832523     0.63634313
O       3.86408900     4.84962797     0.86735501     0.11888528    -1.00940879     0.91851872
O       3.63831601     1.00975999     0.84320500    -0.14522162     1.02423892    -0.80721793
O      -0.20639802     4.61709299     0.77957800     0.51593164     1.63029701     0.86225730
O       0.22075100     0.79620602     0.62635203    -0.08225502     0.57442631     0.36599976
O       5.31966025     4.62416624     4.04994881     1.23254078     0.92835576    -1.36726123
O       5.84351424     0.91922020     4.18602081     0.98524170    -1.30993050    -2.63358169
O       1.93394023     4.89869122     4.13087880     0.48435256    -0.96717532    -0.88659846
O       1.58663024     1.03333923     4.16643681     0.00368568     0.60854949    -0.68724945
O       3.88374720     2.48741724     3.37482183    -1.59416194     1.03042680    -1.05072746
O       3.76462522    -0.56300676     3.21032480     0.07673049    -0.92189638     0.25110740
O       0.09904822    -0.93809177     3.06469581    -1.10488109    -0.44572455     0.29836172
O       5.69119898     6.82983898     1.61999900     0.85766737    -0.64528568     0.17252906
O       5.72185300     2.51055901     1.34492001    -0.75484223     1.15455456     1.44357109
O       1.96077502     6.57623301     1.37332302    -1.35367243    -0.47691976     1.04283392
O       1.58008099     3.04750199     1.99015499     0.97998302    -0.31704953     0.20651674
