# total energy = -39034.67838360 eV

CRYSTAL
PRIMVEC
        7.60600008     0.00000000     0.00000000
        0.00000000     7.60600008     0.00000000
       -3.79573973    -3.79573973     9.71340985
PRIMCOORD
46 1
Ti      1.86703243     4.77926947     6.28958261     0.64030057     0.86771447    -0.23195961
Ti      3.88070501     6.88695001     1.26290601    -1.03088111    -1.35892186     1.08847616
Ti      1.82973544     1.03687445     6.08274760     0.46332042    -1.92373532    -1.85198172
Ti      3.72746697     3.00751402     1.08548198     1.58405853    -1.24528317     0.96581135
Ti     -1.94304255     4.64960146     5.97361760    -0.47184723     0.94542584    -0.28845963
Ti      0.00909502     6.62973902     1.29574998     1.43205948     0.70192582    -0.50402640
Ti     -1.92660054     0.87024643     6.03943164    -0.23776697    -0.43528613    -1.41730186
Ti     -0.22397999     2.97735701     1.10338600     0.34951024    -0.65353276     0.47302454
Ti      3.75734348     0.96784244     8.39665561     0.64558933    -0.17623633     0.42009322
Ti      5.80705700     2.70917902     3.62862899    -1.69395318    -0.19082452    -0.37123710
Ti      3.95239144    -2.91119456     8.57577063    -0.75390172     0.17810372     0.68556563
Ti      5.79327902    -1.08817999     3.60053598    -1.27871575     0.56588665     0.61675414
Ti     -0.08421655     1.20249746     8.31056964     0.16056725    -0.37945254     0.49546642
Ti      1.94434502     2.81366798     3.37781401     0.87175239    -1.92822961     1.89605970
Ti     -0.01767156    -2.75615658     8.46853265    -0.06496049    -0.24090577     1.34256526
Ti      1.86497700    -1.10725302     3.76371398     1.31033622     1.09312805     0.30100687
O       1.79064046    -0.98357657     6.08706362     0.63453204    -0.81984154    -1.50181122
O       3.72360102     0.99068998     0.69201102     0.76552954     2.15427517     0.72223754
O      -1.62971654     2.88893646     5.50267964    -0.33250444    -1.43790617     1.00196159
O       0.21128899     4.74696198     0.79694602    -0.45495944    -0.10338204    -0.49384919
O      -1.84376154    -1.02952355     5.52686664    -0.58145700    -0.42426766     1.37017841
O      -0.03171100     0.96550099     1.03558802     0.12365545    -0.64414077    -1.41872831
O       3.76843445     2.80286647     9.02062560     0.95493558     0.33977707    -0.16758302
O       5.44758202     4.68388400     3.98745499     0.50892023    -0.01857648     0.74140770
O       3.91166844    -0.90391454     8.89385765    -1.41830202    -0.17107947     0.06063358
O      -1.52765201     0.81446602     4.10918501    -0.86707298     0.68128757    -0.73159508
O      -0.29750557     2.96178247     8.92929363     0.41276557    -0.90779978    -0.13272168
O       1.87615402     4.51391602     4.27005199     0.55600101     0.25061709     0.47240541
O      -0.13639956    -0.56061556     9.00640963     1.20209916    -1.15779004    -0.27298595
O       1.92203099     0.91077898     4.06555297    -1.02959222     0.51485331     0.67325313
O       1.90542943     1.09631948     7.97814160    -0.25987358     0.41916068     1.18478689
O       3.92095698     2.43120999     3.29773203    -1.07698872     1.22915257    -0.61694955
O       2.02851944    -2.93955756     8.31910061    -1.86182931     0.61068479    -1.43216850
O       3.77188902    -0.80632600     3.21584502     1.57204325    -0.36203357     0.14507995
O      -1.87577455     0.68738844     7.94489562    -1.98250716     1.55211179    -0.38315545
O      -0.02542702     2.71929001     3.05337602     0.85353792     0.72740418    -0.04985114
O      -1.87131258    -2.54350453     8.32103163     0.09553143    -0.72315851    -1.05642194
O       0.05759200    -1.24265302     3.34462200    -0.97598264     0.08651945    -0.21489545
O       3.89175243     4.36252746     6.58500661    -0.45867109     0.61704005     0.18346988
O       5.78455601     6.46133302     1.58380899    -1.49400844     0.28146262     0.21040836
O       3.66631044     1.11777243     6.22330364     2.59789013     0.04995861     1.32516069
O       5.57068601     3.27402002     1.62199400     0.76793095    -0.40817563    -0.75539810
O      -0.06914754     4.67459445     6.56843860     1.10178188    -0.17133735    -0.20483164
O       1.91919100     6.41775501     1.90209402     0.20293571     0.34457166    -1.93686030
O      -0.02031855     0.91889047     6.41485665    -0.44615933     0.79848749    -0.07738175
O       1.98350000     2.80973799     1.55040600    -1.03564897     0.87234786    -0.26365233
