# total energy = -39481.09942853 eV

CRYSTAL
PRIMVEC
        5.93188753     0.00000000     0.00000000
        0.00000000     9.29428401    -0.00002646
        0.00000000    -0.00002646     9.29428401
PRIMCOORD
47 1
Ti      4.44891576     6.98411807     6.93928331     0.00000000    -0.04898853     0.02306795
Ti      4.44891576     7.04906651     2.40191128     0.00000000    -0.00849313    -0.00849313
Ti      4.44891576     2.40920659     7.05636182     0.00000000    -0.02320910    -0.02320910
Ti      4.44891576     2.29215454     2.33698930     0.00000000     0.02306795    -0.04898853
Ti      1.48297199     6.94157529     6.98021885     0.00000000    -0.02078635     0.01014095
Ti      1.48297199     7.01560553     2.36845029     0.00000000     0.06591462     0.06591462
Ti      1.48297199     2.14148538     6.78864061     0.00000000     0.00711862     0.00711862
Ti      1.48297199     2.33309008     2.29444651     0.00000000     0.01014095    -0.02078635
Ti      2.96329471     4.65111965     4.63684146    -0.00028694    -0.02023330     0.00067517
Ti      3.08687165     4.76275105     0.11559582    -0.04212497     0.00370882     0.00370882
Ti      3.00845410    -0.00702011     4.64013512    -0.02382462     0.00085258     0.00085258
Ti      2.96329471    -0.01028732     0.00399087    -0.00028694     0.00067517    -0.02023330
Ti      0.00264905     4.65111965     4.63684146     0.00028694    -0.02023330     0.00067517
Ti     -0.12092789     4.76275105     0.11559582     0.04212497     0.00370882     0.00370882
Ti     -0.04251034    -0.00702011     4.64013512     0.02382462     0.00085258     0.00085258
Ti      0.00264905    -0.01028732     0.00399087     0.00028694     0.00067517    -0.02023330
O       4.44891576     5.54806624     5.54339276     0.00000000    -0.00218287    -0.00549419
O       4.44891576     5.62652314     0.97936790     0.00000000     0.03023490     0.03023490
O       4.44891576     0.91737588     5.56453111     0.00000000     0.02528809     0.02528809
O       4.44891576     0.89626399     0.90093747     0.00000000    -0.00549419    -0.00218287
O       1.48297199     5.57193286     5.52154786     0.00000000    -0.02940495     0.00152929
O       1.48297199     5.45037634     0.80322111     0.00000000     0.01774576     0.01774576
O       1.48297199     0.87619728     5.52335251     0.00000000    -0.03335416    -0.03335416
O       1.48297199     0.87441909     0.92480409     0.00000000     0.00152929    -0.02940495
O       4.44891576     8.38269619     8.36265628     0.00000000    -0.02926225    -0.00437705
O       4.44891576     8.38491672     3.73776149     0.00000000    -0.00201755    -0.00201755
O       4.44891576     3.75855107     8.40570631     0.00000000     0.02700148     0.02700148
O       4.44891576     3.71552750     3.73556742     0.00000000    -0.00437705    -0.02926225
O       1.48297199     8.38550127     8.35931977     0.00000000    -0.00355558     0.00512755
O       1.48297199     8.36150665     3.71435141     0.00000000     0.00892610     0.00892610
O       1.48297199     3.71219099     3.73837250     0.00000000     0.00512755    -0.00355558
O       2.94181661     5.99190969     7.87590001    -0.00858055     0.00410400    -0.01488155
O       2.96717912     6.04731467     3.21343042     0.00611254     0.00468455    -0.00407700
O       2.92344268     1.48318889     7.91651241    -0.00801079     0.02003019     0.00733459
O       2.97487792     1.40485305     3.22227726    -0.00963393     0.00925726    -0.01694049
O       0.02412716     5.99190969     7.87590001     0.00858055     0.00410400    -0.01488155
O      -0.00123536     6.04731467     3.21343042    -0.00611254     0.00468455    -0.00407700
O       0.04250108     1.48318889     7.91651241     0.00801079     0.02003019     0.00733459
O      -0.00893415     1.40485305     3.22227726     0.00963393     0.00925726    -0.01694049
O       2.97487792     7.86940603     6.05198182    -0.00963393    -0.01694049     0.00925726
O       2.96717912     7.86058565     1.40015944     0.00611254    -0.00407700     0.00468455
O       2.92344268     3.26935718     6.13034412    -0.00801079     0.00733459     0.02003019
O       2.94181661     3.22877124     1.34478092    -0.00858055    -0.01488155     0.00410400
O      -0.00893415     7.86940603     6.05198182     0.00963393    -0.01694049     0.00925726
O      -0.00123536     7.86058565     1.40015944    -0.00611254    -0.00407700     0.00468455
O       0.04250108     3.26935718     6.13034412     0.00801079     0.00733459     0.02003019
O       0.02412716     3.22877124     1.34478092     0.00858055    -0.01488155     0.00410400
