# total energy = -19959.45781609 eV

CRYSTAL
PRIMVEC
        7.60600008     0.00000000     0.00000000
        0.00000000     7.60600008     0.00000000
       -1.89786986    -1.89786986     4.85670466
PRIMCOORD
24 1
Ti      3.83746297     6.38338902     1.15250598     0.08586536     1.81017197     0.87809273
Ti      3.75233698     2.64270600     1.25265500     0.62559951    -1.28431356     0.15680881
Ti      0.03044701     6.84898298     1.21100600     0.14667660    -0.65403309    -1.84471115
Ti      0.01620600     2.86474602     1.26481300    -0.84255519     0.60991295     0.19406925
Ti      5.62540823     2.93080825     3.70706582     0.25162368     1.51034163     1.22360542
Ti      5.77203620    -0.66898477     3.56477683    -1.94149060    -1.96569574    -0.10928889
Ti      1.81255422     2.73088625     3.62907282     0.11751874     0.87793718     0.54313520
Ti      1.88790821    -0.89956677     3.50746884     2.03710739    -0.72373907     1.41580805
O       3.85762902     4.49619398     0.78415797    -0.04696199     1.11646597     1.11131604
O       3.82606100     0.75683401     0.53033202    -0.27114941     3.03945901     2.29572524
O       0.31254002     4.68785500     0.82292402    -0.91508372     1.05244856     0.45968076
O       0.02531600     0.97054299     0.65176598     0.08529689     1.21034803     1.49197289
O       5.84260220     4.89665622     4.08086281    -0.57993387    -1.86771379    -0.25159231
O       5.47975721     1.03535921     4.17002082     0.14921814     0.06299231    -0.62892832
O       1.89523821     4.64502424     4.18564779    -0.26011603    -1.62055561    -1.96025297
O       1.80139223     0.89607722     4.10324082     0.20044739    -0.41418688    -0.24542114
O       3.74923225     2.87281624     3.25610080    -0.40461208     0.04011411    -0.17921264
O       3.82095122    -0.95946376     3.31351479    -0.29320768    -0.25717263    -1.12369437
O      -0.01449776     2.86670525     3.18047481     0.02645435     0.10971081     1.52476681
O       0.02306022    -0.74832876     3.18734883    -0.31532535    -0.26758817    -0.54546128
O       5.65300403    -0.59540701     1.62283502     0.90293088    -1.43970055    -0.19898855
O       5.70756802     2.67269500     1.91944299    -0.73873503    -0.18894581    -3.40094005
O       1.97906698     6.81073198     1.53208398    -0.43175909    -0.72389179     0.43660356
O       1.78960099     2.54320300     1.73916601     2.41219111    -0.03236583    -1.24309310
