# total energy = -19960.42254715 eV

CRYSTAL
PRIMVEC
        5.93400000     0.00000000     0.00000000
        0.00000000     9.29699974     0.00000000
        0.00000000     0.00000000     4.64899994
PRIMCOORD
24 1
Ti      4.47220601     6.79998301     2.34965002    -1.66645625     2.78110830     0.41619928
Ti      4.43333302     2.47191002     2.39399597     0.96621193    -1.66202855    -0.19683550
Ti      1.48867599     6.97671001     2.18499599     1.42265233     1.77853916     0.44276830
Ti      1.45656202     2.30949399     2.31732100    -0.75283085    -0.04688074     0.87490251
Ti      3.01376699     4.65924201     0.08298002    -1.10297384    -0.53587723    -0.64634138
Ti      2.91407799     0.11253198     0.01404198     1.76579420    -1.25737867    -0.75953938
Ti      0.01988600     4.70662401     4.54371500     1.10375417    -1.31917901     0.04236151
Ti      0.01029202     0.01048798     0.10955901    -2.54222033    -0.37814617    -1.54780622
O       4.45070098     5.48813298     0.92278500     0.35071429     0.02362690    -0.04175293
O       4.41441498     0.80531998     0.99936500     0.84022860     0.35120459     0.06402563
O       1.44555900     5.51699198     0.82582100     0.27258949    -0.03220925     0.51270593
O       1.42199500     0.87176099     1.03834102     0.29914179    -0.33617263    -0.50115499
O       4.45044100     8.44054700     3.73281600     0.44716540    -0.57927361    -0.22186752
O       4.42081501     3.77906599     3.79814500     0.16724158    -0.29187662    -0.51761802
O       1.60735902     8.44687702     3.64149700    -1.14955196    -0.40346871     0.21952833
O       1.45849997     3.76320602     3.61236298    -0.01664661     0.61278256     1.29349368
O       3.07061301     5.97059801     3.21613501    -0.72801276     0.07875858     0.12518037
O       2.97194199     1.45906201     3.38574399    -0.29744692     1.08052167    -0.94872559
O       5.92433299     6.03711601     3.17847399     0.67646058    -0.33602634     0.53645239
O       5.81068398     1.49544702     3.22248900     0.99202453    -0.54156966     0.81714934
O       2.96214401     7.70274400     1.30772102    -0.23319143    -0.04507351     0.71782630
O       2.96933701     3.07927400     1.33133201    -0.44132848     1.10921468    -0.19124772
O       0.04246102     7.80989599     1.31852598     0.07180142    -0.50378985     0.52095172
O       0.01726801     3.24540100     1.48661902    -0.44512060     0.45319412    -1.01065655
