# total energy = -19519.26626519 eV

CRYSTAL
PRIMVEC
        7.60600008     0.00000000     0.00000000
        0.00000000     7.60600008     0.00000000
       -1.89786986    -1.89786986     4.85670466
PRIMCOORD
23 1
Ti      3.78029998     6.67955000     1.22747002    -0.06075262     0.16963348     0.51424808
Ti      3.74288598     2.87761302     1.17058903     0.34677844    -0.31399969     1.38036486
Ti      0.00764502     6.61515500     1.19956899     0.06743929     0.24961333    -0.18762607
Ti      0.00649697     2.81343102     1.08609302    -0.92618215    -0.30729836     0.11516027
Ti      5.58764323     2.80780020     3.68044682     0.29305702     0.26896294    -0.73111994
Ti      5.76551822    -1.01226777     3.60153380    -0.91027730    -0.01052404     0.24064609
Ti      2.05425423     2.91510121     3.74094581     0.21563516    -0.28170199    -0.88542732
Ti      1.87985921    -0.91387477     3.66281480     0.82535219    -0.15057440     0.00481851
O       3.88732200     4.73377499     0.77082302     0.01219552     0.47409489     0.99565647
O       3.64372298     1.02164002     0.83346999    -0.11728297    -1.09550787    -0.22801760
O       7.29710302     4.73553000     0.75795100     0.55828286     0.21719453     0.37781552
O       0.03967200     0.84682097     0.72932002     0.43956573     0.28121708     0.02604169
O       5.77320923     4.69566020     3.94869979     0.63612664     0.17287616     0.13894478
O       5.74920623     0.94009820     4.07953881     0.29671698    -0.05629638    -0.62016497
O       1.89374223     4.76631420     4.10777682    -0.37512666     0.44608348    -0.10149074
O       1.98969625     0.96346524     4.09487082    -0.36165999     0.45585136    -0.67943612
O       3.84956822     2.92517124     3.20238482    -1.13941101    -0.07418535    -0.50903645
O       3.79124220    -0.92441376     3.32148383    -0.28214037    -0.10883227    -0.72399901
O       0.04346323    -0.69321077     3.18392981    -0.14621123    -0.88435543    -0.34857024
O       5.64485200     6.74660199     1.67175301     0.60615914    -0.20928916    -0.41562129
O       5.85144798     2.58330400     1.67214799    -0.50147072     0.60046054     0.58036710
O       1.90305702     6.39621702     1.52434502    -0.39785111     0.48953899     0.92220542
O       1.73062398     3.01879502     1.72740901     0.92105717    -0.33296184     0.13424120
