# total energy = -19517.51019298 eV

CRYSTAL
PRIMVEC
        5.93400000     0.00000000     0.00000000
        0.00000000     9.29699974     0.00000000
        0.00000000     0.00000000     4.64899994
PRIMCOORD
23 1
Ti      4.42872801     6.96790699     2.30671798     0.45319310     1.12580525    -0.29600865
Ti      4.50142601     2.41384700     2.32372102     0.01954579    -1.87465269     0.73550264
Ti      1.37129802     6.99299698     2.24363301    -0.23107670     0.84588708    -0.50309514
Ti      1.52948497     2.30431302     2.33370199     0.36452626    -0.86488497     0.66250205
Ti      2.97223298     4.67937398     0.25208501     0.70751746    -0.41065186     0.16394363
Ti      2.90009199     9.24008202     4.56614000     1.39609411     0.56681430     0.16972450
Ti      0.00177401     4.53951100     4.61480398    -0.21672582    -0.51161604    -0.68710855
Ti      5.92069199     0.09379598     4.60028399    -1.37134106     0.48588648     0.71693567
O       4.53559297     5.60058098     0.94657099    -0.98745670    -0.86030943    -0.63703064
O       4.46578301     0.99081503     0.92662403     0.71685417    -0.58346040    -0.35318820
O       1.34844799     5.47402898     0.84642399     1.25207628     1.14467406     0.51698039
O       1.55345898     0.90198903     0.90177503    -0.30001057    -0.36599667    -0.01634168
O       4.52017000     8.41650600     3.77948499    -0.36205980    -0.67445794    -0.88730449
O       4.38062400     3.72801600     3.84718602    -0.17339758     0.42649835    -0.30006919
O       1.60331298     8.46671302     3.47181398    -0.71233057    -0.61360325     0.95623810
O       1.40907403     3.49830999     3.79838202     0.60237293     1.98967463     0.90804661
O       3.03332898     1.36681700     3.26404301    -0.21055260     0.64658178    -0.57352514
O       0.00114800     6.16943202     3.19245898     0.32451396    -1.46278418     0.96688401
O       0.06417301     1.44953000     3.27268702    -0.30207774    -0.48466598    -0.29278859
O       3.00959798     7.68551098     1.26830499    -0.58078825     0.31139850     0.51815615
O       3.07804002     3.29336499     1.52349501    -1.36771220     0.44991468    -0.43314851
O       5.87129398     7.83202698     1.34807301     0.63743482     0.49288683    -0.36618976
O       0.01397203     3.30651198     1.56021102     0.34140097     0.22106147    -0.96911445
