# total energy = -19519.26548857 eV

CRYSTAL
PRIMVEC
        7.60600008     0.00000000     0.00000000
        0.00000000     7.60600008     0.00000000
       -1.89786986    -1.89786986     4.85670466
PRIMCOORD
23 1
Ti      3.81377499     6.63000599     1.25060798     1.31818580     0.69365175    -0.43272556
Ti      3.78730602     2.93640398     1.22940401     0.14291971    -0.93315498     0.73097904
Ti      0.11769098     6.60658799     1.24470898    -1.49269795     0.48151895    -0.36510373
Ti     -0.01044601     2.86310198     1.03876298    -0.22085759    -0.60218061     0.55940515
Ti      5.59447623     2.86382224     3.68460679    -0.73402554    -0.53059798    -1.28976404
Ti      5.67155920    -1.03300379     3.62221484     0.08169066     0.35655043    -0.52151479
Ti      1.94500723     2.86033925     3.66082483     0.37069331     0.36302139    -0.35027026
Ti      1.86635625    -0.95857977     3.65274783     0.36908714    -0.03766025     1.36310787
O       4.00721901     4.72304698     0.80306400    -0.49220394     0.64905132     0.34593820
O       3.92732801     0.94922699     0.77923800    -0.43827606     0.20892355    -0.10662420
O      -0.17862500     4.77580298     0.72780102     0.68198125    -0.50058703     1.14200989
O      -0.07107602     0.91722901     0.67470602     0.44936935    -0.80173814     1.41349714
O       5.82175823     4.65930922     4.01935480     0.45717676     1.36268338     0.12121342
O       5.62566525     0.89988925     3.99522881     0.58510848     1.02997942    -0.05976763
O       1.73933625     4.72743322     4.11242480    -0.17610186     0.34524966    -0.40715748
O       1.82398820     1.04916121     4.08934881    -0.30734259    -1.14694538    -0.52786310
O       3.75901324     2.97828423     3.25223479     0.34265105    -0.22230640    -0.61504153
O       3.80207721    -0.81097980     3.18516782    -0.69482777    -0.56817004     0.70584290
O       0.04262221    -0.86458477     3.21529579    -0.13009864    -0.02404214    -0.11506745
O       5.69658802     6.58613402     1.71024901     0.58029254     0.04321126    -0.92095715
O       5.82064902     2.88458001     1.76729199     0.30481339    -0.36699992    -0.58853730
O       1.94460601     6.38927500     1.65830900    -0.61363951     0.37344387    -0.24845402
O       1.83709899     2.93332999     1.59307102    -0.38389824    -0.17290212     0.16685463
