# total energy = -19906.05087251 eV

CRYSTAL
PRIMVEC
        6.64674804     0.00000000     0.00000000
        2.07557838     6.76280783     0.00000000
        0.00000000     0.00000000    12.03538935
PRIMCOORD
24 1
Ti      3.63911227     4.00763369     4.46504361    -0.33581859    -1.87808048     0.59710962
Ti      5.08321404     2.75517429     7.57034581     0.33581859     1.87808048    -0.59710962
Ti      6.57798405     2.75517662     1.55260301     0.19911479    -0.66114554    -0.14408133
Ti      2.14434237     4.00763162    10.48278654    -0.19911479     0.66114554     0.14408133
Ti      2.60132323     0.62622989     1.55265127    -0.33581859    -1.87808048    -0.59710962
Ti      6.12100311     6.13657830    10.48273828     0.33581859     1.87808048     0.59710962
Ti      1.10655319     0.62622736     7.57029755    -0.19911479     0.66114554    -0.14408133
Ti      7.61577314     6.13658082     4.46509186     0.19911479    -0.66114554     0.14408133
O       2.83458412     2.38129965     6.14156706     1.79727171     2.00247744    -0.64615292
O       5.88774220     4.38150840     5.89382235    -1.79727171    -2.00247744     0.64615292
O       1.95052996     2.38132693     0.12391110    -0.62997219    -0.12400358     1.13165168
O       6.77179644     4.38148117    11.91147798     0.62997219     0.12400358    -1.13165168
O       4.84995313     1.00010440     0.12387205    -1.79727171    -2.00247744    -0.64615292
O       3.87237318     5.76270365    11.91151702     1.79727171     2.00247744     0.64615292
O       5.73400737     1.00007717     6.14160611     0.62997219     0.12400358     1.13165168
O       2.98831889     5.76273096     5.89378330    -0.62997219    -0.12400358    -1.13165168
O       1.50397616     4.11352314     3.25105892     0.55181139     1.97127607     2.00171820
O       7.21835015     2.64928491     8.78433049    -0.55181139    -1.97127607    -2.00171820
O       4.37795352     2.64922185     2.76667406     0.58454206     1.84145562     1.13234305
O       4.34437280     4.11358620     9.26871515    -0.58454206    -1.84145562    -1.13234305
O       0.46618703     0.73211915     2.76663562     0.55181139     1.97127607    -2.00171820
O       8.25613922     6.03068891     9.26875359    -0.55181139    -1.97127607     2.00171820
O       3.30658373     0.73218220     8.78436887    -0.58454206    -1.84145562     1.13234305
O       5.41574258     6.03062585     3.25102048     0.58454206     1.84145562    -1.13234305
