# total energy = -19876.50751133 eV

CRYSTAL
PRIMVEC
        7.41426546     0.00000000     0.00000000
        0.00002255     2.63034019     0.00000000
        0.00000000     0.00000000    11.79547100
PRIMCOORD
24 1
Ti      2.68732811     1.55873707     4.37603571    -0.83593665     0.66448515    -0.01907039
Ti      4.72696010     1.07160286     7.41943564     0.83593665    -0.66448515     0.01907039
Ti      6.39433437     1.07160371     1.52165284    -0.83450301    -0.66483327     0.01998391
Ti      1.01995389     1.55873632    10.27381862     0.83450301     0.66483327    -0.01998391
Ti      2.68731689     0.24356703     1.52170014    -0.83593665     0.66448515     0.01907039
Ti      4.72697137     2.38677301    10.27377132     0.83593665    -0.66448515    -0.01907039
Ti      1.01994262     0.24356613     7.41938834     0.83450301     0.66483327     0.01998391
Ti      6.39434565     2.38677391     4.37608302    -0.83450301    -0.66483327    -0.01998391
O       2.34666983     0.92618741     6.01913871     8.42442138    -0.95138437     3.37288056
O       5.06761843     1.70415257     5.77633265    -8.42442138     0.95138437    -3.37288056
O       1.36052225     0.92619809     0.12144101    -8.42496105    -0.95146253     3.37400979
O       6.05376606     1.70414189    11.67403000     8.42496105     0.95146253    -3.37400979
O       5.06760716     0.38898243     0.12140270    -8.42442138     0.95138437     3.37288056
O       2.34668110     2.24135751    11.67406830     8.42442138    -0.95138437    -3.37288056
O       6.05375479     0.38897180     6.01917696     8.42496105     0.95146253     3.37400979
O       1.36053337     2.24136819     5.77629439    -8.42496105    -0.95146253    -3.37400979
O       0.26939125     1.59992200     3.18625105     1.70518762    -0.41398247     5.71205078
O       7.14489701     1.03041793     8.60922026    -1.70518762     0.41398247    -5.71205078
O       3.97653379     1.03039355     2.71152211     1.70428464     0.41440233    -5.71175947
O       3.43775447     1.59994644     9.08394905    -1.70428464    -0.41440233     5.71175947
O       0.26937998     0.28475191     2.71148446     1.70518762    -0.41398247    -5.71205078
O       7.14490828     2.34558807     9.08398670    -1.70518762     0.41398247     5.71205078
O       3.43774325     0.28477629     8.60925786    -1.70428464    -0.41440233    -5.71175947
O       3.97654501     2.34556364     3.18621340     1.70428464     0.41440233     5.71175947
