# total energy = -4987.19940775 eV

CRYSTAL
PRIMVEC
        3.70851597     0.00000000     0.00000000
        0.00000000     3.48641287     0.00000000
        0.00000000    -0.00006866     4.95845380
PRIMCOORD
6 1
Ti      1.85425783     1.74317221     2.47922701     0.00000000     0.00000000     0.00000000
Ti      0.00000000     0.00000000     0.00000000     0.00000000     0.00000000     0.00000000
O       1.85425783     0.67943718     0.96632967     0.00000000    -0.57532388     0.08994905
O       1.85425783     2.80690724     3.99212440     0.00000000     0.57532388    -0.08994905
O       0.00000000     1.06370761     3.44555764     0.00000000     0.57544344     0.08959861
O       0.00000000     2.42263681     1.51289637     0.00000000    -0.57544344    -0.08959861
