# total energy = -4990.61546070 eV

CRYSTAL
PRIMVEC
        3.80433641     0.00000000     0.00000000
        0.19008987     3.79958436     0.00000000
       -1.99724691    -1.89982431     4.85669831
PRIMCOORD
6 1
Ti      0.14241372     2.84983255     1.21417445     0.00012778    -0.00012778     0.00000000
Ti      1.85476516    -0.95007296     3.64252360    -0.00012778     0.00012778     0.00000000
O       0.04756249     0.94988988     0.79111644    -0.00013061     0.00000926    -0.02606714
O       1.94961623     0.94986962     4.06558166     0.00013061    -0.00000926     0.02606714
O      -0.04754373    -0.94987203     3.21946560     0.00000926    -0.00013061    -0.02606714
O       2.04472244     2.84963147     1.63723255    -0.00000926     0.00013061     0.02606714
