# total energy = -4984.59429113 eV

CRYSTAL
PRIMVEC
        3.22631717     0.00000000     0.00000000
        2.37889691     4.46043098     0.00000000
       -0.00001530    -0.00006892     5.23116876
PRIMCOORD
6 1
Ti      2.80259913     2.23018092     2.61558449     0.00000000     0.00000000     0.00000000
Ti      0.00000000     0.00000000     0.00000000     0.00000000     0.00000000     0.00000000
O       2.07676745     0.86925883     1.01947780    -1.23422716     1.00687471     0.63059979
O       3.52843085     3.59110312     4.21169124     1.23422716    -1.00687471    -0.63059979
O       0.72582520     1.36089439     3.63506331     1.23357333    -1.00656258     0.63043601
O       1.65305606     3.09946764     1.59610567    -1.23357333     1.00656258    -0.63043601
