# total energy = -19898.72154338 eV

CRYSTAL
PRIMVEC
        8.59433710     0.00000000     0.00000000
        0.00002877     4.40409839     0.00000000
        0.00000000     0.00000000    12.98467766
PRIMCOORD
24 1
Ti      3.11505102     2.60986471     4.81722280     0.33572886    -0.42171404     2.80998283
Ti      5.47931504     1.79423387     8.16745499    -0.33572886     0.42171404    -2.80998283
Ti      7.41207246     1.79423544     1.67506422     0.32948982     0.42158780    -2.81141390
Ti      1.18229367     2.60986334    11.30961377    -0.32948982    -0.42158780     2.81141390
Ti      3.11503671     0.40781558     1.67511629     0.33572886    -0.42171404    -2.80998283
Ti      5.47932942     3.99628313    11.30956170    -0.33572886     0.42171404     2.80998283
Ti      1.18227928     0.40781389     8.16740292    -0.32948982    -0.42158780    -2.81141390
Ti      7.41208678     3.99628482     4.81727487     0.32948982     0.42158780     2.81141390
O       2.72017219     1.55075797     6.62598163     0.99990393     1.26830638    -2.34235041
O       5.87419394     2.85334061     6.35869616    -0.99990393    -1.26830638     2.34235041
O       1.57706710     1.55077570     0.13368452    -1.00077297     1.26862751    -2.34339736
O       7.01729910     2.85332288    12.85099288     1.00077297    -1.26862751     2.34339736
O       5.87417956     0.65129141     0.13364241    -0.99990393    -1.26830638    -2.34235041
O       2.72018651     3.75280717    12.85103506     0.99990393     1.26830638     2.34235041
O       7.01728478     0.65127369     6.62602375     1.00077297    -1.26862751    -2.34339736
O       1.57708122     3.75282495     6.35865405    -1.00077297     1.26862751     2.34339736
O       0.31226977     2.67882233     3.50748537    -2.28754244     0.72289472     0.11357904
O       8.28209630     1.72527631     9.47719243     2.28754244    -0.72289472    -0.11357904
O       4.60944907     1.72523520     2.98489480    -2.28623632    -0.72282813    -0.11389786
O       3.98491699     2.67886345     9.99978280     2.28623632     0.72282813     0.11389786
O       0.31225545     0.47677308     2.98485334    -2.28754244     0.72289472    -0.11357904
O       8.28211068     3.92732550     9.99982426     2.28754244    -0.72289472     0.11357904
O       3.98490267     0.47681419     9.47723382     2.28623632     0.72282813    -0.11389786
O       4.60946346     3.92728439     3.50744390    -2.28623632    -0.72282813     0.11389786
