# total energy = -19956.21421726 eV

CRYSTAL
PRIMVEC
        5.21603454     0.00000000     0.00000000
        1.36653458     5.38061777     0.00000000
        0.00000000     0.00000000     9.41049768
PRIMCOORD
24 1
Ti      2.70036883     3.18854927     3.49122770     1.26578824    -1.86407645     0.93002749
Ti      3.88220044     2.19206886     5.91927051    -1.26578824     1.86407645    -0.93002749
Ti      5.05522090     2.19207072     1.21398384    -2.36345506    -0.40971778     0.95787409
Ti      1.52734840     3.18854762     8.19651448     2.36345506     0.40971778    -0.95787409
Ti      2.01710165     0.49824042     1.21402157     1.26567922    -1.86321693    -0.92925411
Ti      4.56546765     4.88237792     8.19647675    -1.26567922     1.86321693     0.92925411
Ti      0.84408111     0.49823836     5.91923278     2.36326711     0.40874822     0.95878992
Ti      5.73848818     4.88237993     3.49126543    -2.36326711    -0.40874822    -0.95878992
O       2.13208793     1.89460710     4.80210516     0.35535127     0.89302879    -0.73958633
O       4.45048129     3.48601103     4.60839305    -0.35535127    -0.89302879     0.73958633
O       1.43832551     1.89462882     0.09688637     0.35675149    -0.55438224     0.43016449
O       5.14424383     3.48598941     9.31361157    -0.35675149     0.55438224    -0.43016449
O       3.76721409     0.79570203     0.09685584    -0.35535924    -0.89263387    -0.73970331
O       2.81535518     4.58491610     9.31364210     0.35535924     0.89263387     0.73970331
O       4.46097662     0.79568035     4.80213569    -0.35702377     0.55374461     0.42969680
O       2.12159260     4.58493784     4.60836252     0.35702377    -0.55374461    -0.42969680
O       1.02071439     3.27279686     2.54201034    -0.07431931     0.11254777    -0.08137262
O       5.56185483     2.10782127     6.86848787     0.07431931    -0.11254777     0.08137262
O       3.33285635     2.10777109     2.16326871     1.08774596    -0.20554075    -0.74259015
O       3.24971293     3.27284709     7.24722934    -1.08774596     0.20554075     0.74259015
O       0.33744720     0.58248786     2.16323866    -0.07401695     0.11263956     0.08143330
O       6.24512208     4.79813032     7.24725940     0.07401695    -0.11263956    -0.08143330
O       2.56644573     0.58253803     6.86851787    -1.08808920     0.20571995    -0.74326403
O       4.01612355     4.79808010     2.54198029     1.08808920    -0.20571995     0.74326403
