# total energy = -4989.89880831 eV

CRYSTAL
PRIMVEC
        3.05963444     0.00000000     0.00000000
        0.47820302     4.77007832     0.00000000
       -0.00000318    -0.00006221     4.80000707
PRIMCOORD
6 1
Ti      1.76891719     2.38500805     2.40000354     0.00000000     0.00000000     0.00000000
Ti      0.00000000     0.00000000     0.00000000     0.00000000     0.00000000     0.00000000
O       1.62301132     0.92960593     0.93545067    -0.13391827    -0.19954339    -0.23033262
O       1.91482311     3.84041018     3.86455635     0.13391827     0.19954339     0.23033262
O       0.14590456     1.45537691     3.33545518     0.13418104     0.19968172    -0.23049460
O       0.33229549     3.31463908     1.46455184    -0.13418104    -0.19968172     0.23049460
