# total energy = -4987.45382260 eV

CRYSTAL
PRIMVEC
        2.87030502     0.00000000     0.00000000
        1.10703712     4.35895799     0.00000000
       -0.00000712    -0.00005894     4.53344355
PRIMCOORD
6 1
Ti      1.98866740     2.17944944     2.26672183     0.00000000     0.00000000     0.00000000
Ti      0.00000000     0.00000000     0.00000000     0.00000000     0.00000000     0.00000000
O       1.65089627     0.84948517     0.88350140    -3.02493227     1.40933272     1.53626788
O       2.32643847     3.50941371     3.64994225     3.02493227    -1.40933272    -1.53626788
O       0.33776810     1.32994041     3.15022414     3.02474535    -1.40931627     1.53609047
O       0.76926178     3.02895855     1.38321951    -3.02474535     1.40931627    -1.53609047
