# total energy = -4990.11818291 eV

CRYSTAL
PRIMVEC
        2.94081368     0.00000000     0.00000000
        0.45963203     4.58483256     0.00000000
       -0.00000306    -0.00005979     4.61359903
PRIMCOORD
6 1
Ti      1.70022138     2.29238638     2.30679951     0.00000000     0.00000000     0.00000000
Ti      0.00000000     0.00000000     0.00000000     0.00000000     0.00000000     0.00000000
O       1.55998176     0.89350472     0.89912249    -0.61829423     0.23509379     0.22407070
O       1.84046105     3.69126803     3.71447649     0.61829423    -0.23509379    -0.22407070
O       0.14023836     1.39885742     3.20592294     0.61834128    -0.23504957     0.22399176
O       0.31939081     3.18591523     1.40767604    -0.61834128     0.23504957    -0.22399176
