# total energy = -19892.28624590 eV

CRYSTAL
PRIMVEC
        8.42353720     0.00000000     0.00000000
        0.00002619     2.98839697     0.00000000
        0.00000000     0.00000000    13.40113721
PRIMCOORD
24 1
Ti      3.05314241     1.77092117     4.97172644    -0.08356500     0.28773432     1.81867075
Ti      5.37042064     1.21747551     8.42941118     0.08356500    -0.28773432    -1.81867075
Ti      7.26476732     1.21747647     1.72878883    -0.08368635    -0.28773920    -1.81944851
Ti      1.15879578     1.77092033    11.67234890     0.08368635     0.28773920     1.81944851
Ti      3.05312966     0.27672275     1.72884257    -0.08366321     0.28592580    -1.81873272
Ti      5.37043344     2.71167405    11.67229516     0.08366321    -0.28592580     1.81873272
Ti      1.15878297     0.27672173     8.42935743     0.08335545     0.28609524    -1.81845915
Ti      7.26478013     2.71167507     4.97178018    -0.08335545    -0.28609524     1.81845915
O       2.66611180     1.05226528     6.83849790     3.24094307     0.15238086    -0.78502159
O       5.75745130     1.93613145     6.56263971    -3.24094307    -0.15238086     0.78502159
O       1.54572424     1.05227741     0.13797224    -3.24468608     0.15260197    -0.78420192
O       6.87783892     1.93611932    13.26316497     3.24468608    -0.15260197     0.78420192
O       5.75743850     0.44193291     0.13792872    -3.24310640    -0.15179876    -0.78525556
O       2.66612461     2.54646377    13.26320849     3.24310640     0.15179876     0.78525556
O       6.87782612     0.44192084     6.83854137     3.24382682    -0.15201782    -0.78579678
O       1.54573687     2.54647590     6.56259625    -3.24382682     0.15201782     0.78579678
O       0.30606231     1.81771243     3.61998155    -0.79006404     0.36111106     2.28504101
O       8.11750079     1.17068424     9.78115600     0.79006404    -0.36111106    -2.28504101
O       4.51784205     1.17065654     3.08062983    -0.78985553    -0.36073953    -2.28655925
O       3.90572105     1.81774019    10.32050756     0.78985553     0.36073953     2.28655925
O       0.30604950     0.32351395     3.08058705    -0.78986401     0.36197572    -2.28437433
O       8.11751360     2.66488279    10.32055033     0.78986401    -0.36197572     2.28437433
O       3.90570830     0.32354165     9.78119872     0.78967143     0.36201609    -2.28598255
O       4.51785480     2.66485503     3.61993878    -0.78967143    -0.36201609     2.28598255
