# total energy = -19073.59604268 eV

CRYSTAL
PRIMVEC
        5.17600016     0.00000000     0.00000000
        0.00000000     5.50899976     0.00000000
        0.00000000     0.00000000     9.26300011
PRIMCOORD
22 1
Ti      2.13835500     3.48658602     3.35965502    -0.32880179    -0.45148743    -1.00661220
Ti      3.49251497     2.04800899     5.83461898    -0.46824614     0.36167439    -0.52404913
Ti      4.56553901     2.33744598     1.19258502    -0.33910498    -0.52070720    -0.20734463
Ti      0.47512597     2.98257702     7.94070898    -0.73512186    -0.78126444     0.02402208
Ti      1.94231901     0.42198700     1.34814498    -0.04613589     0.18776876    -1.40753141
Ti      3.01117799     5.24242302     8.01619098     0.04844449     0.18251265     1.68403103
Ti      0.66644101     0.21199402     6.07860001     0.40269327    -0.13745560    -0.01290206
Ti      4.72837801     5.05812598     3.30334099    -0.03613790    -0.70327514     0.28311507
O       3.65863599     3.37500497     4.40769702     0.23484414    -0.22638289     1.63573695
O       0.85275702     1.87825401     0.10640500    -0.02505721     0.25153034     1.01877429
O       4.18253798     3.72473700     8.76971600    -0.27473893    -0.54242661     0.51131779
O       3.48932901     0.74089800     0.29993401     0.37525110     1.13964241    -0.82354805
O       1.59911401     4.70247802     9.18859699     0.50677773     0.29351493    -0.48735484
O       4.42043802     0.69273202     4.82638699    -1.10479367     0.93945033     0.46594140
O       1.07791501     4.82350202     4.33424802     1.66879749    -0.63669871     1.38930434
O       0.53121802     3.72102302     2.24876698    -1.39317231    -1.45076889    -0.38697919
O       4.55336502     1.27039201     7.24456303     0.79699008    -0.06376312    -0.38200282
O       2.73601498     1.95799599     2.30838298     0.53391265     1.18844325    -0.03018476
O       1.35507900     4.04492099     6.78603702     1.62937553     1.64479521    -1.08028822
O       0.26957199     0.78861000     2.18182199    -0.84120819     1.45252162     0.36426632
O       2.03749699     1.38264501     7.06567302     0.02277793    -1.33729167    -1.07781482
O       3.06900299     4.84705099     2.41848302    -0.62734580    -0.79033247     0.05010259
