# total energy = -4987.16548765 eV

CRYSTAL
PRIMVEC
        2.85535552     0.00000000     0.00000000
        1.10127130     4.33625508     0.00000000
       -0.00000708    -0.00005863     4.50983187
PRIMCOORD
6 1
Ti      1.97830975     2.16809814     2.25491598     0.00000000     0.00000000     0.00000000
Ti      0.00000000     0.00000000     0.00000000     0.00000000     0.00000000     0.00000000
O       1.64229785     0.84506077     0.87889983    -3.25801032     1.51714683     1.67116831
O       2.31432161     3.49113552     3.63093214     3.25801032    -1.51714683    -1.67116831
O       0.33600889     1.32301364     3.13381672     3.25760023    -1.51686067     1.67078367
O       0.76525521     3.01318273     1.37601525    -3.25760023     1.51686067    -1.67078367
