# total energy = -19921.92596494 eV

CRYSTAL
PRIMVEC
        7.67046509     0.00000000     0.00000000
        0.00002699     4.39583554     0.00000000
        0.00000000     0.00000000    11.60477257
PRIMCOORD
24 1
Ti      2.78019076     2.60496821     4.30528801     0.35641391    -0.11192685     2.17685384
Ti      4.89030150     1.79086769     7.29948504    -0.35641391     0.11192685    -2.17685384
Ti      6.61529185     1.79086925     1.49705218     0.35579016     0.11239556    -2.17800672
Ti      1.05520041     2.60496677    10.10772099    -0.35579016    -0.11239556     2.17800672
Ti      2.78017739     0.40705050     1.49709870     0.35641391    -0.11192685    -2.17685384
Ti      4.89031488     3.98878552    10.10767448    -0.35641391     0.11192685     2.17685384
Ti      1.05518703     0.40704876     7.29943853    -0.35579016    -0.11239556    -2.17800672
Ti      6.61530523     3.98878720     4.30533452     0.35579016     0.11239556     2.17800672
O       2.42776021     1.54784849     5.92182681     1.28285523     1.01527991    -1.52618683
O       5.24273205     2.84798735     5.68294625    -1.28285523    -1.01527991     1.52618683
O       1.40753632     1.54786620     0.11947762    -1.28352757     1.01586972    -1.52762511
O       6.26295601     2.84796970    11.48529507     1.28352757    -1.01586972     1.52762511
O       5.24271868     0.65006958     0.11943998    -1.28285523    -1.01527991    -1.52618683
O       2.42777359     3.74576632    11.48533272     1.28285523     1.01527991     1.52618683
O       6.26294263     0.65005187     5.92186445     1.28352757    -1.01586972    -1.52762511
O       1.40754951     3.74578403     5.68290855    -1.28352757     1.01586972     1.52762511
O       0.27870214     2.67379639     3.13473869    -1.99977521     0.69160927     0.49603797
O       7.39179012     1.72203951     8.47003436     1.99977521    -0.69160927    -0.49603797
O       4.11394415     1.72199840     2.66768470    -1.99964614    -0.69180493    -0.49635936
O       3.55654811     2.67383750     8.93708812     1.99964614     0.69180493     0.49635936
O       0.27868877     0.47587856     2.66764765    -1.99977521     0.69160927    -0.49603797
O       7.39180350     3.91995733     8.93712516     1.99977521    -0.69160927     0.49603797
O       3.55653473     0.47591967     8.47007134     1.99964614     0.69180493    -0.49635936
O       4.11395753     3.91991623     3.13470165    -1.99964614    -0.69180493     0.49635936
