# total energy = -19913.98324469 eV

CRYSTAL
PRIMVEC
        7.60835631     0.00000000     0.00000000
        0.00002994     5.39839452     0.00000000
        0.00000000     0.00000000    11.82055978
PRIMCOORD
24 1
Ti      2.75768109     3.19908357     4.38534337     0.56784146    -0.58470507     1.51771067
Ti      4.85070530     2.19931095     7.43521654    -0.56784146     0.58470507    -1.51771067
Ti      6.56172809     2.19931283     1.52488933     0.56713749     0.58453332    -1.51815470
Ti      1.04665830     3.19908195    10.29567064    -0.56713749    -0.58453332     1.51815470
Ti      2.75766612     0.49988644     1.52493672     0.56845415    -0.66487364    -1.51715686
Ti      4.85072027     4.89850827    10.29562326    -0.56845415     0.66487364     1.51715686
Ti      1.04664333     0.49988443     7.43516909    -0.56780109    -0.66454685    -1.51756798
Ti      6.56174306     4.89851028     4.38539075     0.56780109     0.66454685     1.51756798
O       2.40810342     1.90086651     6.03194120     0.75768587     1.43708059    -1.54018392
O       5.20028297     3.49752808     5.78861871    -0.75768587    -1.43708059     1.54018392
O       1.39614047     1.90088826     0.12169929    -0.75806742     1.43711685    -1.54056213
O       6.21224605     3.49750632    11.69886023     0.75806742    -1.43711685     1.54056213
O       5.20026806     0.79833075     0.12166092    -0.75734109    -1.43799822    -1.53915188
O       2.40811832     4.60006377    11.69889861     0.75734109     1.43799822     1.53915188
O       6.21223107     0.79830906     6.03197951     0.75779823    -1.43823090    -1.53984248
O       1.39615524     4.60008559     5.78858034    -0.75779823     1.43823090     1.53984248
O       0.27644754     3.28360956     3.19302812    -1.88171654     0.54207385     0.19435979
O       7.33193884     2.11478502     8.62753180     1.88171654    -0.54207385    -0.19435979
O       4.08063421     2.11473468     2.71728944    -1.88109176    -0.54189747    -0.19487401
O       3.52775217     3.28365990     9.10327028     1.88109176     0.54189747     0.19487401
O       0.27643257     0.58441224     2.71725165    -1.88163426     0.54179386    -0.19489972
O       7.33195381     4.81398228     9.10330801     1.88163426    -0.54179386     0.19489972
O       3.52773727     0.58446258     8.62756946     1.88087605     0.54135960    -0.19450557
O       4.08064912     4.81393201     3.19299039    -1.88087605    -0.54135960     0.19450557
