# total energy = -19933.48700495 eV

CRYSTAL
PRIMVEC
        6.93033249     0.00000000     0.00000000
        0.00002439     3.97167597     0.00000000
        0.00000000     0.00000000    10.48501382
PRIMCOORD
24 1
Ti      2.51192674     2.35361163     3.88986548     0.01707316     0.83397773     0.47289212
Ti      4.41843030     1.61806467     6.59514877    -0.01707316    -0.83397773    -0.47289212
Ti      5.97697422     1.61806607     1.35259978     0.01723257    -0.83407954    -0.47253525
Ti      0.95338283     2.35361033     9.13241458    -0.01723257     0.83407954     0.47253525
Ti      2.51191466     0.36777370     1.35264180     0.01707316     0.83397773    -0.47289212
Ti      4.41844239     3.60390271     9.13237256    -0.01707316    -0.83397773     0.47289212
Ti      0.95337074     0.36777213     6.59510674    -0.01723257     0.83407954    -0.47253525
Ti      5.97698630     3.60390422     3.88990751     0.01723257    -0.83407954     0.47253525
O       2.19350265     1.39849469     5.35042247     2.30187995    -0.22499244     0.53742787
O       4.73685440     2.57318155     5.13459179    -2.30187995     0.22499244    -0.53742787
O       1.27172141     1.39851069     0.10794908    -2.30159481    -0.22450650     0.53637474
O       5.65863569     2.57316560    10.37706485     2.30159481     0.22450650    -0.53637474
O       4.73684231     0.58734357     0.10791507    -2.30187995     0.22499244     0.53742787
O       2.19351473     3.38433273    10.37709886     2.30187995    -0.22499244    -0.53742787
O       5.65862361     0.58732756     5.35045648     2.30159481     0.22450650     0.53637474
O       1.27173333     3.38434873     5.13455772    -2.30159481    -0.22450650    -0.53637474
O       0.25180983     2.41579850     2.83226391    -0.51080871     0.29250295     1.07499251
O       6.67854721     1.55587780     7.65275035     0.51080871    -0.29250295    -1.07499251
O       3.71698463     1.55584066     2.41027652    -0.51028986    -0.29230754    -1.07554402
O       3.21337241     2.41583563     8.07473751     0.51028986     0.29230754     1.07554402
O       0.25179775     0.42996046     2.41024306    -0.51080871     0.29250295    -1.07499251
O       6.67855930     3.54171584     8.07477098     0.51080871    -0.29250295     1.07499251
O       3.21336033     0.42999759     7.65278376     0.51028986     0.29230754    -1.07554402
O       3.71699671     3.54167870     2.83223044    -0.51028986    -0.29230754     1.07554402
