# total energy = -19515.70041350 eV

CRYSTAL
PRIMVEC
        5.17600016     0.00000000     0.00000000
        0.00000000     5.50899976     0.00000000
        0.00000000     0.00000000     9.26300011
PRIMCOORD
23 1
Ti      1.97824898     3.22558299     3.34938602     0.60717138    -0.94557625     2.20390442
Ti      3.29527400     2.30623198     5.94881099     1.52166066     2.51292800    -3.10180572
Ti      4.18178999     2.15736299     1.45675702     1.96050288    -0.72356938    -0.31846518
Ti      0.82474100     3.42202100     7.73920400    -0.61991326    -0.04673907     1.94827908
Ti      1.94711298     0.02310600     1.50396403    -1.43550091     0.82109444    -1.59803788
Ti      3.22901799     5.26510302     7.98264702     0.62883833     0.32748410    -0.08020534
Ti      0.78874398     0.65971602     5.85424601    -0.40299897    -1.74555909    -3.06660036
Ti      4.50652098     4.88809900     3.41941300     1.47164960     0.30237676     1.59429872
O       1.76767099     1.99816298     4.85917401    -0.58524937     0.06014352    -0.37313277
O       3.74359000     3.49617101     4.56589499    -0.60809980     0.16243516    -0.86778209
O       0.21604302     2.72280301     0.08389698    -0.96303764     0.13775513    -0.41765272
O       3.18733999     0.80127897     0.23458099     2.43745787     2.15645470     0.77850359
O       1.64742001     4.97059101     8.88095599    -1.69166001    -2.29464897     0.96244012
O       4.24294398     0.56562899     4.76617498    -0.27693979     1.61375298     0.78317914
O       1.06290198     4.87364198     4.28743498     1.28720631    -0.15397674     0.36424755
O       0.34929397     3.30775999     2.66367401    -1.21505675    -0.61108434    -1.83167951
O       5.12018000     2.04069200     6.69576499    -1.19114574     0.73467757     0.88279451
O       2.51983300     1.51053202     2.41108501     0.53668713     1.26327473     0.64404255
O       2.43174901     3.85567900     6.89358500     1.08992112    -1.60166725    -0.12640962
O       0.06389900     0.67191900     1.97205200     0.03179787    -0.64157429     0.09232861
O       5.01026999     4.77166598     7.09992999    -0.99394771     0.79554255     0.12227426
O       2.48306698     1.00033101     6.88132301    -1.08851087    -1.54803145     1.67812880
O       3.18916602     4.17346000     2.04391199    -0.50083231    -0.57549281    -0.27265016
