# total energy = -19077.21808671 eV

CRYSTAL
PRIMVEC
        5.17575250     0.00001323     0.00000000
        0.00001429     5.50856584     0.00000000
        0.00000000     0.00000000     9.26345890
PRIMCOORD
22 1
Ti      1.90825694     3.41265743     3.31518169    -0.00892122     0.01437993    -0.00494372
Ti      3.42563915     2.27205428     5.92668663    -0.01253439    -0.00063198    -0.00085721
Ti      4.46139404     2.25102642     1.13474948    -0.00114337     0.00435468    -0.00606215
Ti      0.74308610     3.27615811     8.09188659    -0.00851215    -0.00116137     0.00127193
Ti      1.80871738     0.62281642     1.24231701     0.01743723     0.00011570     0.01666075
Ti      3.18860509     4.98601412     8.13704544    -0.01377109    -0.01231687    -0.00546334
Ti      0.81100038     0.57653957     5.76945125     0.01225928     0.02259358    -0.01532841
Ti      4.46449486     4.94109176     3.50016814     0.00453748     0.02251079     0.01783935
O       3.46814393     3.50216423     4.53279324     0.00675840     0.01872407     0.01006382
O       0.94948242     1.96369195     0.15231903     0.01802884     0.00260041    -0.01978182
O       4.13501197     3.61014551     9.13294597     0.00829515    -0.00535638     0.02341247
O       3.55660787     0.82544464     0.07839464    -0.00710139    -0.00229780     0.00313263
O       1.53867227     4.75799625     9.09570223     0.00302285    -0.03977678    -0.00284955
O       4.30470651     0.83905410     4.70773003    -0.00370985     0.02352277    -0.00154935
O       0.93660526     4.59321327     4.58948877    -0.00473006    -0.00697798     0.00653780
O       0.16954587     3.30756471     2.50405014    -0.00630795     0.00774879     0.00925726
O       5.10087001     1.99974777     6.82159745    -0.01671500     0.00375921    -0.00440096
O       2.73687764     2.08430128     2.17687631    -0.00787812    -0.00099116     0.01087423
O       2.33707150     3.38132290     7.06006616     0.01650983    -0.01273365     0.00587652
O       0.19315827     0.52875963     2.18183825     0.00140099    -0.01706262    -0.01045025
O       2.47162920     0.65088954     6.67655475     0.01388808    -0.01370913    -0.00542529
O       2.77374339     4.86839263     2.47257294    -0.01081355    -0.00729397    -0.02781420
