# total energy = -19074.18548601 eV

CRYSTAL
PRIMVEC
        7.60600008     0.00000000     0.00000000
        0.00000000     7.60600008     0.00000000
       -1.89786986    -1.89786986     4.85670466
PRIMCOORD
22 1
Ti      3.66453002     6.58380199     1.40111599     1.27514217     0.38814133    -0.62209792
Ti      4.15312498     2.86868199     1.18919802    -0.49880757    -0.19000691     0.60140851
Ti     -0.08257800     6.63600702     1.35831201    -0.54092945     1.84206189     0.48289783
Ti      0.13926501     2.85953998     1.12335398    -0.63488017    -0.72001688    -0.38121375
Ti      5.81096222     3.00879823     3.70146379    -1.29385132     0.09600734    -1.48365563
Ti      5.54479723    -0.88954876     3.69761783     0.70576062     0.02633222     0.23101808
Ti      1.95535121     3.02493724     3.60282679     3.21324791    -0.50123340     1.91090089
Ti      1.62778621    -0.93476378     3.91476879    -0.61534260     0.94939022     0.26879839
O       3.99273797     4.67306100     0.78225902    -0.49026096     0.33825729     0.05907266
O       3.47786698     0.89258200     1.08707401     0.55714515     2.76439947    -0.09717411
O      -0.01434102     4.91658699     0.70873799     0.71738124    -1.88430461     1.79183794
O       0.23589103     0.87629001     0.78167201     0.25818668     1.87093924     1.51721008
O       5.30391225     4.91462121     4.15775179     0.73828535    -0.48062241    -0.53152178
O       5.33108222     1.05971120     4.01569284     1.24979571    -0.33138370     0.94704563
O       1.94784224     4.93244723     4.44733383     0.46838884    -2.32184817    -3.12240849
O       2.07458623     0.91558221     4.01530479     0.03072289    -0.07917072     0.62881673
O       3.92103620     3.26285824     3.13075983    -1.24829007    -1.22319096    -1.00338572
O       0.21630522     3.06187323     3.48873681    -2.48053080     0.12909899    -1.46969891
O       5.49502202     6.71608699     1.74959599     1.83669445    -0.09978892     0.44121509
O       5.98492098     2.67041102     1.65123702    -0.99521938     0.20772876     0.64592152
O       2.01610902     6.47287898     2.03335898    -2.48368889    -0.68669974     0.00613337
O      -0.16434679    -0.87188080     3.36621079     0.23105073    -0.09409033    -0.82112015
