# total energy = -19518.45810754 eV

CRYSTAL
PRIMVEC
        7.60600008     0.00000000     0.00000000
        0.00000000     7.60600008     0.00000000
       -1.89786986    -1.89786986     4.85670466
PRIMCOORD
23 1
Ti      3.79440202     6.65313903     1.27275601     0.29236179    -0.67183953     0.56864724
Ti      3.65962799     2.72019798     1.12474698     0.54100736     0.95215699     2.64509406
Ti      0.03876700     6.71144901     1.15767599    -0.79939638     0.52939471     0.73880677
Ti     -0.03585901     2.96078598     1.05336902    -0.25228291    -0.94661960    -0.35839289
Ti      5.67264423     3.02084220     3.55361579    -1.62003445    -1.38657459    -0.46302808
Ti      5.75853022    -0.89025277     3.56551683    -0.00018846     0.75058422     1.00176027
Ti      1.93030721     2.72983223     3.79717682     1.50752165     0.47481402    -1.05684309
Ti      1.91481920    -1.08610376     3.65699882     0.18814980     0.13252191    -0.03563807
O       3.74693398     4.60424102     0.85508799    -0.68632770     0.85711844     0.36873772
O       3.94114801     0.90100402     0.91454799    -0.59199981    -0.57516550    -0.25500365
O      -0.04736200     4.76787501     0.80478901     0.66820091     2.12847389    -0.30024480
O      -0.16722398     1.05332599     0.70803800     0.52522978    -0.79885156    -0.42429363
O       5.90249422     4.79908620     4.15935282     0.35467404     0.06765912    -1.62146552
O       5.81631024     1.15163125     3.89493480     0.39980232    -1.33756549     0.12980296
O       1.91515824     4.67293823     4.25266682    -0.75006255     0.03765485    -1.25403032
O       2.00175821     0.83307221     4.10680980    -0.79215975    -0.20235129    -0.42644693
O       3.74186922     2.77108620     3.38451582     0.61231127     0.55887165    -1.24316124
O       3.78865923    -1.21037379     3.31580983     0.21827825     0.58304080    -0.97595281
O       0.02683622    -0.87002180     3.30189681     0.07984050    -0.40107707    -0.15164141
O       5.74401399     6.68642798     1.60998299    -0.55477922    -0.36087220     0.50055849
O       5.75826997     2.99219000     1.46858498    -0.98017637    -0.18359277     2.02128404
O       1.85600999     6.73075700     1.63965698     1.04818515    -0.22849377     0.60359369
O       1.73040098     2.76068099     1.77053400     0.59184477     0.02071256    -0.01214255
