# total energy = -19960.86310156 eV

CRYSTAL
PRIMVEC
        5.93400000     0.00000000     0.00000000
        0.00000000     9.29699974     0.00000000
        0.00000000     0.00000000     4.64899994
PRIMCOORD
24 1
Ti      4.40267302     7.00314702     2.28630697     1.10108459    -0.52623225    -0.16403799
Ti      4.47969402     2.28850602     2.37216403    -1.04577037     0.66442344    -0.44995119
Ti      1.49249400     7.02379298     2.38860398    -1.26738104    -1.06108464    -0.54726260
Ti      1.44428902     2.35849400     2.35332299     1.15020991     0.52945436    -0.69898705
Ti      2.95379999     4.66036202     4.61958801     0.45799746    -0.33736717     1.12512982
Ti      2.96101400     9.25093799     4.63619899     0.54771537     1.16351254     0.04288602
Ti      0.00370800     4.69324202     4.59751603    -0.35443339     0.09656784     0.50624063
Ti      0.03100402     0.01622701     0.03603401    -0.96365625     0.75423648     0.85468489
O       4.44332102     5.62719298     0.81259300     0.51882798    -0.31689450    -0.18599033
O       4.48799602     0.90113901     0.84822202    -1.10558454    -0.23925178     0.14895846
O       1.53554098     5.54776999     0.93124300    -0.42277359     0.28801971    -0.52658063
O       1.51074199     0.90924399     0.92777102     0.11153578    -0.34392014    -0.60501319
O       4.49582298     8.31314901     3.65277498    -0.96793251     0.85648826     1.09241329
O       4.47937498     3.65148199     3.78467500     0.33164286     0.37309729     0.10860112
O       1.34048498     8.35665003     3.88472702     2.32987181    -1.38277810    -1.84547708
O       1.56609499     3.73032998     3.82553098    -1.17531288    -0.43578749    -0.80977310
O       2.99243898     5.99806400     3.15791302    -0.56870226     0.72879206    -0.04702498
O       2.95710899     1.45223600     3.16428098     0.19470380    -1.47480306     1.18690856
O       5.92048000     5.96800102     3.07960601     0.34519284     0.06908737     0.86694725
O       0.06462900     1.34874898     3.22829402    -0.47183720     0.34537102    -0.21678779
O       2.90158401     7.91048698     1.38093301     0.13647806    -0.12635280     0.36779670
O       2.96035401     3.19021998     1.42295202     0.42507730     0.38073475     0.03937440
O       5.90198399     7.87069899     1.45060999     0.68415461     0.22335619    -0.12188293
O       0.00065898     3.28344498     1.47958700     0.00889088    -0.22866963    -0.12117228
