# total energy = -19073.53618781 eV

CRYSTAL
PRIMVEC
        5.93400000     0.00000000     0.00000000
        0.00000000     9.29699974     0.00000000
        0.00000000     0.00000000     4.64899994
PRIMCOORD
22 1
Ti      4.46768101     6.97305297     2.46440502    -0.41063927    -0.45538573    -0.46918973
Ti      4.39382999     2.43453899     2.09939702     1.21014980    -1.25255502     0.65109715
Ti      1.46964799     7.14482301     2.48132398     0.34436057    -0.43392910    -0.22222027
Ti      1.58297199     2.35776601     2.25411802    -0.54142670    -1.05833742     0.13344005
Ti      2.94252402     4.52318202     4.44882299     0.10302286     0.98879753    -0.02392027
Ti      2.99709802     9.21303403     0.09702200     0.30649695     1.12639403     0.45484914
Ti      5.74221601     4.62484898     4.55547998    -0.02347932    -0.09334445     0.04288447
Ti      0.03041901     9.16227900     0.10309500    -0.43334649     0.43404608     0.74816559
O       4.51654101     5.60008402     0.88741199    -0.72817140    -0.37047605     1.16305077
O       4.47340099     0.85569602     1.01054201     0.68167581    -0.12170296    -1.00467719
O       1.37496802     0.68122702     1.21268100     0.49675454     1.59403956    -0.83779325
O       4.46341902     8.21829600     3.92960401    -0.37673129     1.09606066    -0.30884745
O       4.36202400     3.93291703     3.41355601     0.78550419    -0.53030359    -0.25389319
O       1.56164498     8.43261400     3.70852301    -0.54352318     1.99344850     1.52326400
O       1.44665302     3.92937598     3.56630102     0.23960042    -0.91439904    -0.20641852
O       2.88317801     6.18737801     3.36581602     0.40959668    -1.26105432    -0.00587214
O       3.09266801     1.42215301     3.22550002    -0.25543842     0.64365817     0.34003778
O       0.20826501     6.29762299     3.62473801    -0.66838680    -1.03610816    -1.36691413
O       2.98782498     7.99803502     1.64326898     0.90747583    -0.68981335    -1.22923974
O       2.95654002     2.93978600     1.15817802    -0.77587335     2.30017350    -1.40714960
O       0.01915098     7.95586700     1.44415202    -0.47160580    -2.10676297     1.16192540
O       0.08992298     3.10823498     1.11639699    -0.25601538     0.14755412     1.11742087
