# total energy = -39027.18415709 eV

CRYSTAL
PRIMVEC
        5.93200024     0.00000000     0.00000000
        0.00000000     9.29399984     0.00000000
        0.00000000     0.00000000     9.29399984
PRIMCOORD
46 1
Ti      4.45538801     6.86099800     6.77592598    -0.00394639     0.27366986     0.55043277
Ti      4.42709201     7.20352798     2.56958402    -0.18827681    -0.79515071    -1.71749729
Ti      4.32199502     2.33798198     7.22785399     1.95028043    -0.24754179    -0.88987842
Ti      4.02828800     2.29595102     2.14352601     2.51879243    -0.16006023    -0.57195394
Ti      1.48793599     6.60629901     6.97986100    -1.00215596    -1.90192310    -0.70781391
Ti      1.43234100     7.29057700     2.37242200     0.98384687    -1.48330107    -1.62950820
Ti      1.45146700     2.54874698     6.91988500    -1.15585168     1.30747535     0.65661268
Ti      1.11844300     1.88512299     2.39767799     1.02682879     1.85579441    -1.22535763
Ti      3.11241002     4.55976198     4.48169299    -2.52493917     0.28444202     0.52645105
Ti      3.03440702     5.05055102     0.14482698    -3.30538548     1.11054883    -0.43994291
Ti      2.97336701     0.01359202     4.79428900     1.12534270     0.01333452     1.17204630
Ti      3.22010903     9.19662599     9.02961802    -1.75759520    -0.17628518     1.02356298
Ti      0.01730298     4.70508501     4.47602899     2.47352249    -1.62025685     0.96656365
Ti      5.76485903     4.54050300     9.19104798     3.38640663     0.70298177     0.39078983
Ti      0.02636901     0.00716898     4.92527899     0.37353052    -1.07980588     1.33899554
Ti      0.04615002     9.07031201     9.04084102     1.67622876     0.36963350     0.50302058
O       4.60142702     5.68961002     5.35631302    -1.33588476    -1.88863744    -1.19768715
O       4.49695002     5.70008498     0.98190098     0.74876028    -1.73038932     0.12625510
O       4.69040801     0.83877002     5.83952800    -0.83878389     0.98212526     0.32500993
O       4.47807897     1.02507698     0.46161899     0.38845681    -1.01633972     2.43117717
O       1.63708301     5.36383999     5.57148300    -0.20654296    -0.53801768    -1.58452364
O       1.43404299     5.77330300     0.93315100     0.43268751    -0.67165827     0.53167759
O       1.83249197     0.95258202     5.82099902    -2.45579935     1.08659154    -0.46599411
O       1.85454798     0.46436500     0.85082499    -3.35944552     1.78922981     1.63299153
O       4.55498801     8.29729899     8.02701800     0.85087914     1.88258146     2.07465579
O       4.61897099     8.54346399     3.86822998    -0.03529200     0.03465411    -0.37869510
O       4.26179301     3.86626101     8.40827899    -0.50940849    -0.01628794     1.74759438
O       4.42838600     3.38413201     3.95327098     0.69380345     1.42772846    -1.80934279
O       1.35316200     7.89508300     8.09402698    -0.56671711     5.80890633     4.42308969
O       1.53629501     8.41993401     4.09825401    -0.34175913    -0.23486779    -3.41805024
O       1.41952602     4.26187800     8.12737599     0.32841998    -1.65613841     1.47832316
O       1.52301599     3.73452001     3.53603599     0.26764011    -1.02390030     0.27042307
O       3.02325302     6.18106699     8.01576002     1.58609613     0.07709456    -0.90947203
O       3.03308699     6.16862201     3.13412100    -0.51991710    -1.18224098     1.64744139
O       2.93309302     1.48752900     8.02929198    -1.06241904     0.10809410    -0.98462335
O       3.11463802     1.36375502     3.33752002    -1.59085396    -0.29558776    -1.10047318
O       5.72657400     5.97891900     7.90973698    -0.51451059     0.05716773    -0.79127400
O       0.29230698     6.24174197     3.45631502    -1.04973527     0.31199963    -1.60016598
O       0.06072902     1.87856500     8.08822899     1.32253688    -1.93075932     0.11190551
O       2.93912300     7.96351700     6.04339798     0.93765904    -2.27105112     0.72414273
O       3.16428501     7.79117000     1.31347001    -0.19589191     0.73942563     0.93136575
O       3.16045397     3.33790298     6.25723401    -0.96908231     0.33517402    -1.68788923
O       0.05821601     7.66714302     6.10636298     0.22124531     1.38681654    -1.90761476
O       5.77362501     7.99551301     1.41869701     1.55740261     0.56605428    -0.18967395
O       0.00699900     3.27378099     6.10693502     0.27392132     0.32803200    -1.21426100
O       5.81209699     3.07208598     1.45549700     0.36590565    -0.91935433     0.83716358
