# total energy = -4990.30116540 eV

CRYSTAL
PRIMVEC
        3.01225576     0.00000000     0.00000000
        0.23584052     4.71385714     0.00000000
       -0.00000130    -0.00006126     4.72122984
PRIMCOORD
6 1
Ti      1.62404738     2.35689779     2.36061481     0.00000000     0.00000000     0.00000000
Ti      0.00000000     0.00000000     0.00000000     0.00000000     0.00000000     0.00000000
O       1.55208939     0.91864927     0.92009809    -0.14035323    -0.13235324    -0.13827347
O       1.69600531     3.79514630     3.80113148     0.14035323     0.13235324     0.13827347
O       0.07195735     1.43822368     3.28071386     0.14018405     0.13241752    -0.13850589
O       0.16388176     3.27557210     1.44051571    -0.14018405    -0.13241752     0.13850589
