# total energy = -4986.24536409 eV

CRYSTAL
PRIMVEC
        3.28297034     0.00000000     0.00000000
        1.74687463     4.83821929     0.00000000
       -0.00001135    -0.00006816     5.22699697
PRIMCOORD
6 1
Ti      2.51491680     2.41907551     2.61349848     0.00000000     0.00000000     0.00000000
Ti      0.00000000     0.00000000     0.00000000     0.00000000     0.00000000     0.00000000
O       1.98192306     0.94288439     1.01866474     0.59115211    -0.00925572    -0.46592392
O       3.04791054     3.89526663     4.20833229    -0.59115211     0.00925572     0.46592392
O       0.53298897     1.47616357     3.63216426    -0.59169745     0.00967609    -0.46556319
O       1.21387441     3.36198743     1.59483276     0.59169745    -0.00967609     0.46556319
