# total energy = -4985.06980606 eV

CRYSTAL
PRIMVEC
        4.04524905     0.00000000     0.00000000
        0.00000000     3.05177376     0.00000000
        0.00000000    -0.00008068     5.35046837
PRIMCOORD
6 1
Ti      2.02262447     1.52584638     2.67523424     0.00000000     0.00000000     0.00000000
Ti      0.00000000     0.00000000     0.00000000     0.00000000     0.00000000     0.00000000
O       2.02262447     0.59472997     1.04272751     0.00000000    -0.71617282     1.03842010
O       2.02262447     2.45696278     4.30774097     0.00000000     0.71617282    -1.03842010
O       0.00000000     0.93108433     3.71796285     0.00000000     0.71547940     1.04107682
O       0.00000000     2.12060843     1.63250563     0.00000000    -0.71547940    -1.04107682
