# total energy = -19960.80816203 eV

CRYSTAL
PRIMVEC
        5.93400000     0.00000000     0.00000000
        0.00000000     9.29699974     0.00000000
        0.00000000     0.00000000     4.64899994
PRIMCOORD
24 1
Ti      4.49117299     7.07316098     2.21686601    -0.81113475    -0.90299336     0.84161648
Ti      4.42834700     2.24659598     2.33275000     0.90478671     0.69153779     0.20270945
Ti      1.52100300     6.92226498     2.34310098     0.69189132    -0.00910094     0.94550837
Ti      1.47560198     2.21866600     2.26877703    -0.83159586     1.18320694     0.59569757
Ti      2.97578498     4.60246299     0.08553700     0.47124173     0.14810742    -0.28135181
Ti      2.94590700     0.05892002     0.03772298    -0.20162881    -1.00821528    -0.80086885
Ti      0.01588701     4.62464700     4.57234899    -0.42631606     0.22531948    -0.36038112
Ti      5.90370101     0.00571099     0.02922498     0.11017747    -0.56147797    -1.02418364
O       4.43821198     5.51528300     0.97972702     0.38170843    -0.05580787    -0.31041480
O       4.40045402     0.86039998     1.00557801     0.07692512    -0.07094833    -0.58323877
O       1.50136502     5.59590802     0.91601000    -0.46193459    -0.59520597     0.01903543
O       1.44561800     0.97004402     0.90097999     0.81176339    -0.89166688    -0.50549038
O       4.49986700     8.43837298     3.78461701    -0.63577517     0.54648715    -0.04170177
O       4.41563997     3.82298199     3.70319398     0.46810087    -0.20042502     0.35662268
O       1.50240602     8.49223698     3.70898498    -0.17344103    -0.16701172     0.59084255
O       1.52054802     3.79593701     3.64613301    -0.54621847     0.61851098     1.02374887
O       3.04043298     6.23483198     3.22892602    -1.14999265    -0.77702237     0.49547207
O       2.91942300     1.44438100     3.19483399     0.52524366    -0.96667138     1.40684441
O       5.82592698     6.18388300     3.34529098     1.24935580    -0.67354135    -0.41758793
O       0.00038699     1.41846099     3.23759003    -0.09960843    -0.23359895     0.86647494
O       2.95777099     7.86630200     1.38923999    -0.43260035     0.76184180    -0.43492592
O       3.01504099     3.18054699     1.43795498    -0.54968201     0.82715479    -1.00774606
O       5.93378600     7.96288902     1.46898599     0.76091184     0.02962786    -0.49283412
O       5.91198798     3.01024802     1.39902902    -0.13217841     2.08189268    -1.08384740
