# total energy = -19902.96543218 eV

CRYSTAL
PRIMVEC
        8.21780087     0.00000000     0.00000000
        0.00002587     3.31753377     0.00000000
        0.00000000     0.00000000    12.71910683
PRIMCOORD
24 1
Ti      2.97857301     1.96596740     4.71869794    -0.07654640     0.07536677     2.07323680
Ti      5.23925396     1.35156626     8.00040901     0.07654640    -0.07536677    -2.07323680
Ti      7.08733319     1.35156739     1.64080472    -0.07596301    -0.07504282    -2.07363172
Ti      1.13049379     1.96596644    11.07830234     0.07596301     0.07504282     2.07363172
Ti      2.97856019     0.30720057     1.64085571    -0.07654640     0.07536677    -2.07323680
Ti      5.23926679     3.01033320    11.07825135     0.07654640    -0.07536677     2.07323680
Ti      1.13048096     0.30719938     8.00035802     0.07596301     0.07504282    -2.07363172
Ti      7.08734601     3.01033439     4.71874893    -0.07596301    -0.07504282     2.07363172
O       2.60099508     1.16816002     6.49046284     2.97893959     0.33105151    -1.15426120
O       5.61683195     2.14937364     6.22864410    -2.97893959    -0.33105151     1.15426120
O       1.50797180     1.16817338     0.13095034    -2.97877993     0.33144566    -1.15441546
O       6.70985528     2.14936028    12.58815626     2.97877993    -0.33144566     1.15441546
O       5.61681913     0.49060676     0.13090908    -2.97893959    -0.33105151    -1.15426120
O       2.60100784     2.82692690    12.58819752     2.97893959     0.33105151     1.15426120
O       6.70984246     0.49059339     6.49050416     2.97877993    -0.33144566    -1.15441546
O       1.50798445     2.82694032     6.22860279    -2.97877993     0.33144566     1.15441546
O       0.29858747     2.01791209     3.43574805    -1.10510529     0.30487844     0.68341156
O       7.91923950     1.29962157     9.28335889     1.10510529    -0.30487844    -0.68341156
O       4.40749873     1.29959073     2.92384581    -1.10648777    -0.30478074    -0.68346529
O       3.81032830     2.01794299     9.79526091     1.10648777     0.30478074     0.68346529
O       0.29857465     0.35914521     2.92380519    -1.10510529     0.30487844    -0.68341156
O       7.91925232     2.95838845     9.79530152     1.10510529    -0.30487844     0.68341156
O       3.81031548     0.35917604     9.28339940     1.10648777     0.30478074    -0.68346529
O       4.40751155     2.95835762     3.43570749    -1.10648777    -0.30478074     0.68346529
