# total energy = -19884.32070480 eV

CRYSTAL
PRIMVEC
        9.16108193     0.00000000     0.00000000
        0.00002848     3.25005384     0.00000000
        0.00000000     0.00000000    14.57450867
PRIMCOORD
24 1
Ti      3.32046824     1.92597879     5.40703889     0.17256968     0.11689113     2.02565209
Ti      5.84064180     1.32407474     9.16747022    -0.17256968    -0.11689113    -2.02565209
Ti      7.90085294     1.32407579     1.88015743     0.17259179    -0.11608329    -2.02607427
Ti      1.26025716     1.92597787    12.69435180    -0.17259179     0.11608329     2.02607427
Ti      3.32045438     0.30095193     1.88021588     0.17185903     0.11715596    -2.02524406
Ti      5.84065573     2.94910173    12.69429335    -0.17185903    -0.11715596     2.02524406
Ti      1.26024323     0.30095082     9.16741177    -0.17228120     0.11660163    -2.02505225
Ti      7.90086687     2.94910284     5.40709734     0.17228120    -0.11660163     2.02505225
O       2.89955016     1.14439911     7.43726039     1.30738022     0.44964317    -1.82284160
O       6.26155994     2.10565448     7.13724872    -1.30738022    -0.44964317     1.82284160
O       1.68106415     1.14441230     0.15005276    -1.30523360     0.44986146    -1.82179027
O       7.48004602     2.10564129    14.42445591     1.30523360    -0.44986146     1.82179027
O       6.26154601     0.48062750     0.15000543    -1.30820888    -0.44891246    -1.82338821
O       2.89956409     2.76942603    14.42450324     1.30820888     0.44891246     1.82338821
O       7.48003209     0.48061437     7.43730766     1.30565835    -0.44929376    -1.82319024
O       1.68107789     2.76943922     7.13720145    -1.30565835     0.44929376     1.82319024
O       0.33286039     1.97686698     3.93693846    -1.39893261     0.51010294     1.04191680
O       8.82824971     1.27318655    10.63757058     1.39893261    -0.51010294    -1.04191680
O       4.91341348     1.27315643     3.35036239    -1.40152762    -0.51037497    -1.04098709
O       4.24769663     1.97689717    11.22414647     1.40152762     0.51037497     1.04098709
O       0.33284647     0.35184006     3.35031587    -1.39839345     0.51109153    -1.04016974
O       8.82826364     2.89821354    11.22419299     1.39839345    -0.51109153     1.04016974
O       4.24768276     0.35187018    10.63761704     1.40126100     0.51097352    -1.04135296
O       4.91342734     2.89818335     3.93689194    -1.40126100    -0.51097352     1.04135296
