# total energy = -4987.20981910 eV

CRYSTAL
PRIMVEC
        3.27265966     0.00000000     0.00000000
        0.76486322     5.07040227     0.00000000
       -0.00000480    -0.00006656     5.14233120
PRIMCOORD
6 1
Ti      2.01875874     2.53516776     2.57116554     0.00000000     0.00000000     0.00000000
Ti      0.00000000     0.00000000     0.00000000     0.00000000     0.00000000     0.00000000
O       1.78538932     0.98813369     1.00216458     0.55126786    -0.59190622    -0.70127713
O       2.25212816     4.08220183     4.14016645    -0.55126786     0.59190622     0.70127713
O       0.23336733     1.54700710     3.57333122    -0.55115216     0.59277114    -0.70145685
O       0.53149062     3.52332852     1.56899981     0.55115216    -0.59277114     0.70145685
