# total energy = -19517.00880981 eV

CRYSTAL
PRIMVEC
        5.93400000     0.00000000     0.00000000
        0.00000000     9.29699974     0.00000000
        0.00000000     0.00000000     4.64899994
PRIMCOORD
23 1
Ti      4.55520598     6.99158503     2.25982102    -0.01602518    -0.28045578     0.13829815
Ti      4.46697800     2.34201500     2.30387899    -1.31269855    -0.39042062    -0.00245746
Ti      1.59800999     7.07599499     2.33495202    -0.36081538     0.17183692    -1.62555178
Ti      1.39206500     2.33568599     2.39036899     1.49784915    -0.83062064    -0.30840111
Ti      2.94264102     4.57347000     0.13084400     0.28129807     0.65455349     2.03360914
Ti      3.03516099     0.10835301     4.58222503    -0.91544342    -0.44409319    -0.13949680
Ti      5.88382701     4.51447499     4.57884300     0.21773267     1.49920155     0.76151167
Ti      0.01512299     0.01833001     4.62746598     0.41685208    -0.03300089     0.38924845
O       4.55609499     5.47713800     1.09466998    -0.70256526    -0.49024553    -1.18001929
O       4.34473499     1.00031598     0.86139399     0.67596513    -0.25681036     0.14720214
O       1.55131899     5.58029200     1.05544201     0.18925923     0.17475563    -0.27116818
O       1.45251498     0.96768897     0.79795098    -0.47495955    -0.15331931     0.72195267
O       4.30383202     8.53356102     3.47122400     0.70872305    -0.72683674     1.75984363
O       4.38758802     3.62058402     3.82767600     0.15294856     0.29831415    -0.38199202
O       1.38472499     8.43513500     3.73127800     0.27524030    -1.12215736    -0.42336752
O       1.63122301     3.75883099     3.84977201    -1.61281016    -0.66137411    -1.50918104
O       2.88747202     1.43063599     3.18497398     0.16394491     0.05758348    -0.15750892
O       5.80809598     5.82459499     3.33461499     0.36620107     1.81358357    -0.63930838
O       5.83176597     1.32659101     3.22767197     0.37250054     1.21917078    -0.58072269
O       3.03167800     7.91865102     1.31890100    -0.96699791    -1.29969544     1.01113760
O       2.85141398     3.29461501     1.45881298     0.65731048    -0.53979045     0.66160088
O       5.92139902     7.85629701     1.48232300     0.92327912     0.63238157    -0.87693419
O       0.02445101     3.08018398     1.34863600    -0.53678920     0.70743930     0.47170479
