# total energy = -4981.94601126 eV

CRYSTAL
PRIMVEC
        2.98166752     0.00000000     0.00000000
        2.19850663     4.12219924     0.00000000
       -0.00001414    -0.00006369     4.83449246
PRIMCOORD
6 1
Ti      2.59007977     2.06106768     2.41724633     0.00000000     0.00000000     0.00000000
Ti      0.00000000     0.00000000     0.00000000     0.00000000     0.00000000     0.00000000
O       1.91928745     0.80334347     0.94217143    -6.10132957     2.75842576     3.57791275
O       3.26087211     3.31879198     3.89232129     6.10132957    -2.75842576    -3.57791275
O       0.67078632     1.25769861     3.35941870     6.10046670    -2.75900657     3.57743324
O       1.52770584     2.86443692     1.47507396    -6.10046670     2.75900657    -3.57743324
