# total energy = -39033.08038484 eV

CRYSTAL
PRIMVEC
        5.93200024     0.00000000     0.00000000
        0.00000000     9.29399984     0.00000000
        0.00000000     0.00000000     9.29399984
PRIMCOORD
46 1
Ti      4.40903097     7.08709501     6.99749800     0.61514977     1.10946999    -0.33788987
Ti      4.51384601     6.90777600     2.29822198    -0.09658327    -0.19361237    -0.84010261
Ti      4.41367001     2.03969000     7.22368598    -0.24812903     1.23529031    -2.31547697
Ti      4.43271600     2.42044298     2.21665301     1.06492356     0.66084549     0.33053060
Ti      1.45419702     6.82517799     7.04538500    -1.06095737     1.45434427    -0.38471868
Ti      1.55332499     6.98408801     2.23400003     0.38993596    -0.61247222    -1.04256935
Ti      1.42351300     2.54334900     6.73121998     0.57833850    -0.63536816    -0.55611414
Ti      1.57604702     2.21430199     2.64841101    -0.37518554     0.43818942    -0.73707641
Ti      3.17018401     4.62444702     4.51401699    -1.09230762    -0.20732612     1.71743456
Ti      2.93986099     4.82922200     9.05268401     0.25203274    -0.33515062     1.77141592
Ti      2.77052898     0.03757100     4.86144799     1.81538977    -0.24292332    -0.17910928
Ti      2.99046700     0.13899602     0.06647498    -1.80054473    -1.59468310    -0.87932198
Ti      0.05398402     4.76983900     4.70861801     0.75525052     0.39701653     0.26442495
Ti      5.90944300     4.51486902     9.04079498    -0.50216183    -0.09211726     1.84678912
Ti      5.86139598     9.03787001     4.62141499    -1.29221379    -0.71963147     1.29685000
Ti      0.02700503     0.03578402     0.13475800     1.30525854    -1.02514780    -1.36435820
O       4.58814303     5.72908701     5.54955802    -0.60974763    -0.25568319    -0.22066450
O       4.41227203     5.38591901     0.83707797    -0.47146516     0.08406739     0.05645322
O       4.41328000     0.81696400     5.66152198    -0.20423900    -0.63223630    -0.99751615
O       4.42024302     0.85859803     1.16713900     0.32481838     0.39086336    -0.84352604
O       1.59678399     5.61162602     5.51347999    -0.56649960     1.08410605     0.92822644
O       1.50401202     5.74077702     0.52770799     0.04508894    -1.92065463     1.29692302
O       1.23139901     1.00142598     5.29877399     0.71357421     0.38064245    -0.64609121
O       1.38038701     0.91267200     1.08663098     0.92242037     0.53984882     0.90074159
O       4.38503199     8.42811901     8.52313300     0.08278467     0.80798978    -0.55942752
O       4.44825899     8.10518198     3.78377302     0.39307348     1.45108951     0.26098147
O       4.31501703     3.70669899     8.31783101     0.51528809    -0.80632782     0.52413680
O       4.66518398     3.78221100     3.78597900    -0.86217863    -1.19815303    -0.77708048
O       1.51853201     8.41253400     8.52558600    -0.43393913     0.62946517     0.30871607
O       1.60712602     8.21326701     3.67488401    -1.02049951     1.48089761     1.10970268
O       1.43575599     3.82649699     8.01973499    -0.01122673     1.42778991     2.82019345
O       1.58565301     3.80006501     3.81951900    -0.20027924    -1.61099727    -1.08566465
O       2.99871899     6.02987999     7.75208999     0.73772202     0.73173546    -0.78449117
O       3.12826698     5.96340098     3.08977500    -1.23186920    -0.37728999     0.07535495
O       2.68028499     1.43003198     7.76942600     1.33339413    -0.47271909     1.17513085
O       3.20850300     1.41255400     3.35210298    -1.23009823     0.43677300    -0.18628446
O       5.76205301     6.11183102     7.98017301     0.11090098     0.37370664    -1.23478818
O       0.01298400     5.92920597     3.21138998     0.87048895     0.99165275    -1.04458869
O       0.02430400     1.49255502     7.91675000     0.08339890    -1.54244675     1.55738075
O       2.71916502     8.16456900     6.41416602     0.94159412    -0.93489716    -1.65974669
O       3.03522000     7.84772799     1.36305402    -0.18708382    -0.11986899     0.74611436
O       2.95368601     3.48602297     6.10399401     0.05938582    -1.41074015    -1.10418226
O       0.01201100     8.01153200     6.20420701     0.11000546    -0.56285557    -0.52071312
O       0.14453498     7.69584898     1.15453199    -1.10128642     0.31831889     2.30701033
O       5.70625899     3.13126202     6.20984201     0.30132415     1.23392789    -1.75416149
O       0.05197801     3.17938698     1.33205302     0.27695316    -0.15472827     0.76115378
