# total energy = -19959.97162003 eV

CRYSTAL
PRIMVEC
        7.60600008     0.00000000     0.00000000
        0.00000000     7.60600008     0.00000000
       -1.89786986    -1.89786986     4.85670466
PRIMCOORD
24 1
Ti      3.77692002     6.52712599     1.26685600     0.98313159    -1.24232023     0.26678033
Ti      3.76352898     2.75758001     1.17623900     0.66007390     0.62698611     2.11750119
Ti      0.09148602     6.73148398     1.34650601    -1.35842280     0.15886852    -1.91289632
Ti      0.01747798     2.94945301     1.07240902    -0.43053421     0.26455453    -0.02487543
Ti      5.70154122     3.11982121     3.61781679    -2.14264247    -0.68166141    -0.90933628
Ti      5.76657425    -0.87124176     3.66640082    -1.24372174     0.00691421    -0.65312215
Ti      1.72949524     2.77918420     3.63106781     1.52433332    -0.14849669    -0.21966022
Ti      1.87983323    -1.03465678     3.71740980     1.35754117    -0.35456426    -0.51665077
O       3.77089401     4.58826701     0.73513399    -0.73670592     1.18709420     0.49963289
O       3.76378102     0.83279899     0.71631602    -0.21019985    -0.96488498     1.70504106
O       0.25282099     5.00587999     0.63894401    -0.99242022    -3.23149324     1.26819993
O       0.12771402     0.98248101     0.76140102    -0.58733891     1.35992047     0.17190762
O       5.88733620     4.90761125     4.09814982     0.03514854     0.38005238    -0.61830992
O       5.76400324     1.12222424     3.88579781    -0.63664009    -1.74125069     1.76249444
O       1.82097623     4.52937922     4.14941280    -0.55952933     1.89991867    -0.31898377
O       1.97655323     0.85156420     4.13362681    -0.20119327    -0.42860254    -1.85193338
O       3.75519623     2.90596120     3.22029080    -0.58730909    -0.16967744    -0.12460368
O       3.81317723     6.28362625     3.27282979    -0.13853392     1.45798290    -0.42773325
O      -0.16687578     2.88365125     3.03777682     2.56215076     0.04091835     0.14488017
O       0.02160821    -0.80282179     3.25311582    -0.00931125    -0.06834817     0.38413890
O       5.72933499     6.49530699     1.56261099    -0.38418132     0.63254792     0.79349287
O       5.58411298     2.97447003     1.61843999     1.23014194    -0.26961266    -1.20384365
O       1.85732102     6.37276700     1.74517799     1.88585267     1.01425764     0.04018713
O       1.81301000     2.75000198     1.63653801    -0.01968952     0.27089667    -0.37230770
