# total energy = -39481.08491220 eV

CRYSTAL
PRIMVEC
        5.93188753     0.00000000     0.00000000
        0.00000000     9.29428401    -0.00002646
        0.00000000    -0.00002646     9.29428401
PRIMCOORD
47 1
Ti      4.44891576     6.97884945     6.94064923     0.00000000     0.03854162    -0.01829675
Ti      4.44891576     7.04715624     2.40000101     0.00000000     0.00544868     0.00544868
Ti      4.44891576     2.37455288     7.02170811     0.00000000     0.10670005     0.10670005
Ti      4.44891576     2.29352045     2.33172068     0.00000000    -0.01829675     0.03854162
Ti      1.48297199     6.93863239     6.98402084     0.00000000     0.02377680    -0.03354751
Ti      1.48297199     6.99530842     2.34815319     0.00000000     0.06101102     0.06101102
Ti      1.48297199     2.13820667     6.78536191     0.00000000    -0.02286200    -0.02286200
Ti      1.48297199     2.33689206     2.29150361     0.00000000    -0.03354751     0.02377680
Ti      2.96291944     4.64865097     4.64256829     0.00216127     0.03438723    -0.03954744
Ti      3.09240322     4.75357652     0.10642129     0.04104202     0.02976747     0.02976747
Ti      2.99661914    -0.01852094     4.62863429     0.09491822     0.04019433     0.04019433
Ti      2.96291944    -0.00456049     0.00152219     0.00216127    -0.03954744     0.03438723
Ti      0.00302433     4.64865097     4.64256829    -0.00216127     0.03438723    -0.03954744
Ti     -0.12645946     4.75357652     0.10642129    -0.04104202     0.02976747     0.02976747
Ti     -0.03067537    -0.01852094     4.62863429    -0.09491822     0.04019433     0.04019433
Ti      0.00302433    -0.00456049     0.00152219    -0.00216127    -0.03954744     0.03438723
O       4.44891576     5.55679017     5.54775348     0.00000000    -0.04363678    -0.00952825
O       4.44891576     5.62690232     0.97974708     0.00000000    -0.09350360    -0.09350360
O       4.44891576     0.92441612     5.57157135     0.00000000    -0.02686418    -0.02686418
O       4.44891576     0.90062470     0.90966139     0.00000000    -0.00952825    -0.04363678
O       1.48297199     5.56717836     5.53645618     0.00000000     0.02009858    -0.04030051
O       1.48297199     5.44262775     0.79547252     0.00000000     0.05011750     0.05011750
O       1.48297199     0.86834956     5.51550479     0.00000000     0.10202218     0.10202218
O       1.48297199     0.88932741     0.92004959     0.00000000    -0.04030051     0.02009858
O       4.44891576     8.38560196     8.37233955     0.00000000    -0.00099296    -0.03591987
O       4.44891576     8.38343766     3.73628243     0.00000000     0.01614551     0.01614551
O       4.44891576     3.75428361     8.40143884     0.00000000     0.00758553     0.00758553
O       4.44891576     3.72521077     3.73847319     0.00000000    -0.03591987    -0.00099296
O       1.48297199     8.38547005     8.37596422     0.00000000    -0.00400732    -0.07229765
O       1.48297199     8.35696068     3.70980544     0.00000000     0.03588156     0.03588156
O       1.48297199     3.72883545     3.73834128     0.00000000    -0.07229765    -0.00400732
O       2.94036265     5.99758652     7.87532187     0.02544108    -0.04204604     0.04034397
O       2.96684797     6.05075960     3.21691634    -0.01503530    -0.01356257    -0.00628584
O       2.91854292     1.48779862     7.91859394     0.02562260    -0.02935352    -0.00362423
O       2.97419647     1.41369852     3.22673420    -0.00286730    -0.03643435    -0.00662471
O       0.02558112     5.99758652     7.87532187    -0.02544108    -0.04204604     0.04034397
O      -0.00090420     6.05075960     3.21691634     0.01503530    -0.01356257    -0.00628584
O       0.04740085     1.48779862     7.91859394    -0.02562260    -0.02935352    -0.00362423
O      -0.00825271     1.41369852     3.22673420     0.00286730    -0.03643435    -0.00662471
O       2.97419647     7.87386298     6.06082729    -0.00286730    -0.00662471    -0.03643435
O       2.96684797     7.86407157     1.40360437    -0.01503530    -0.00628584    -0.01356257
O       2.91854292     3.27143870     6.13495386     0.02562260    -0.00362423    -0.02935352
O       2.94036265     3.22819309     1.35045775     0.02544108     0.04034397    -0.04204604
O      -0.00825271     7.87386298     6.06082729     0.00286730    -0.00662471    -0.03643435
O      -0.00090420     7.86407157     1.40360437     0.01503530    -0.00628584    -0.01356257
O       0.04740085     3.27143870     6.13495386    -0.02562260    -0.00362423    -0.02935352
O       0.02558112     3.22819309     1.35045775    -0.02544108     0.04034397    -0.04204604
