# total energy = -19931.08416983 eV

CRYSTAL
PRIMVEC
        5.94858052     0.00000000     0.00000000
        2.97936113     5.58624163     0.00000000
        0.00000000     0.00000000    11.01734069
PRIMCOORD
24 1
Ti      3.92164100     3.31040162     4.08735484     1.07514498    -3.23521774     0.68042753
Ti      5.00630080     2.27584015     6.92998597    -1.07514498     3.23521774    -0.68042753
Ti      6.34406218     2.27584214     1.42127155    -2.65460921    -0.91909927     0.87896819
Ti      2.58387982     3.31039989     9.59606932     2.65460921     0.91909927    -0.87896819
Ti      2.43196067     0.51728099     1.42131575     1.07514498    -3.23521774    -0.68042753
Ti      6.49598125     5.06896100     9.59602518    -1.07514498     3.23521774     0.68042753
Ti      1.09419919     0.51727884     6.92994178     2.65460921     0.91909927     0.87896819
Ti      7.83374271     5.06896309     4.08739897    -2.65460921    -0.91909927    -0.87896819
O       2.93184705     1.96701069     5.62206465     1.59216214     2.03209991    -1.15906299
O       5.99609483     3.61923113     5.39527616    -1.59216214    -2.03209991     1.15906299
O       2.14065752     1.96703317     0.11342970     0.79810671    -1.27938244     1.45048993
O       6.78728443     3.61920869    10.90391075    -0.79810671     1.27938244    -1.45048993
O       4.50641438     0.82611029     0.11339395    -1.59216214    -2.03209991    -1.15906299
O       4.42152749     4.76013147    10.90394651     1.59216214     2.03209991     1.15906299
O       5.29760398     0.82608784     5.62210034    -0.79810671     1.27938244     1.45048993
O       3.63033784     4.76015399     5.39524041     0.79810671    -1.27938244    -1.45048993
O       2.02834200     3.39786879     2.97605858     0.68171309     2.60025452     2.44250032
O       6.89959988     2.18837303     8.04128217    -0.68171309    -2.60025452    -2.44250032
O       4.35754494     2.18832085     2.53264681     1.04098838     1.60059304     1.18670699
O       4.57039694     3.39792096     8.48469376    -1.04098838    -1.60059304    -1.18670699
O       0.53866155     0.60474795     2.53261165     0.68171309     2.60025452    -2.44250032
O       8.38928032     4.98149382     8.48472893    -0.68171309    -2.60025452     2.44250032
O       3.08071649     0.60480012     8.04131728    -1.04098838    -1.60059304     1.18670699
O       5.84722537     4.98144164     2.97602341     1.04098838     1.60059304    -1.18670699
