# total energy = -19518.35403061 eV

CRYSTAL
PRIMVEC
        7.60600008     0.00000000     0.00000000
        0.00000000     7.60600008     0.00000000
       -1.89786986    -1.89786986     4.85670466
PRIMCOORD
23 1
Ti      3.76150403     6.71942800     1.25783601     0.93723558    -0.20525021    -0.38322667
Ti      3.73388701     2.86970902     1.22950000     0.74271690     0.35006251     1.04078037
Ti      0.04960201     6.62526202     1.11635201    -0.99747707     0.59715127     0.09651179
Ti     -0.06024598     2.80750100     1.12922102    -0.65129410    -0.48292123     0.87736357
Ti      5.79539022     2.71166124     3.67182483    -2.23144146     0.57438363    -0.29717336
Ti      5.74444125    -1.00764477     3.51020680     0.34472053    -0.09202779     0.04592738
Ti      1.93920623     2.90035722     3.71203479     1.94400848    -0.10680984     1.08500208
Ti      1.94517625    -0.94645177     3.66879582    -0.64598245     0.41428946    -0.13592990
O       3.99224901     4.79730197     0.94469501    -1.17674910    -0.58767598    -0.25822704
O       3.60578499     0.98031800     0.79910601     0.11092437     0.74946914    -0.12537578
O       7.26342603     4.69321397     0.73201798     1.50615613     0.17429823     0.60130643
O       0.08849600     0.93205502     0.65507900     0.07885011    -0.51028935     0.69656790
O       5.65316024     4.71843022     3.99469180     0.77078976    -0.13041514    -0.32324101
O       5.63078525     0.84194122     4.06424882     0.85923266     1.53374974    -0.79071736
O       1.99174924     4.83205924     4.07591379    -0.48839897    -0.62725119    -0.03009375
O       1.98452423     0.99165324     4.11756983    -1.08543634     0.07021814     0.73231859
O       3.76095024     2.80325023     3.38867383     0.05611563     0.21867678    -1.32655320
O       3.77238624    -0.70932575     3.18892784     0.49959330    -0.86003330     0.04906772
O       0.05730921    -0.88195776     3.14337182    -0.65846285    -0.26152783    -0.02968417
O       5.70319501     6.88307702     1.51182400     0.42183951    -0.55447583     1.00575525
O       5.66241698     2.71773900     1.77070000     0.75066007    -0.21669086    -0.58366120
O       1.91155201     6.58758201     1.57162399    -0.60602312    -0.38580394    -0.03533700
O       1.75755799     2.87565200     1.88794398    -0.48157706     0.33887358    -1.91138065
