# total energy = -19517.88770674 eV

CRYSTAL
PRIMVEC
        7.60600008     0.00000000     0.00000000
        0.00000000     7.60600008     0.00000000
       -1.89786986    -1.89786986     4.85670466
PRIMCOORD
23 1
Ti      3.76446001     6.60160902     1.18671200    -0.16352402    -0.23915588     0.20581020
Ti      3.77774998     2.75238799     1.18226299     0.74891841     0.72211953     0.07269668
Ti     -0.02937003     6.71960602     1.11987998    -0.01070685    -0.77897590     0.27888381
Ti      0.00241998     2.86754299     1.14544602    -0.67198146     0.86813896     0.51619415
Ti      5.69800325     2.88042925     3.70332279    -0.36931622     0.67657011     1.32421118
Ti      5.66903524    -0.85799778     3.55218183    -0.43886048    -0.51709069     0.08913427
Ti      2.12588324     2.83889624     3.71464379    -0.44586056    -0.04886126     0.93574409
Ti      1.82283724    -1.01733580     3.59735181     0.73628477     0.19522214    -0.87260291
O       4.01415902     4.66673601     0.84320198    -0.90038498     0.38056609     0.17464096
O       3.57180298     0.91119999     0.62439402    -0.26705287     0.59706694     2.17601257
O       7.23118500     4.80932298     0.89425801     1.28214869    -0.23736845    -0.37273836
O       0.06257701     1.05432799     0.79073300     0.22814152    -1.17531545    -0.20431253
O       5.82829923     4.75623623     4.00558079     0.15807225     0.33153051     0.44458273
O       5.46167724     0.97864723     4.05073479     1.15316899    -0.20550012     0.21472088
O       1.99304425     4.78637923     4.01971681    -0.60231199    -1.79603732     0.66185722
O       2.20827820     0.89445222     4.07034981    -1.18110918     0.21968619     0.36229068
O       3.86042223     2.90705925     3.51223482     0.01894415     0.15619920    -1.81604386
O       3.82154024    -1.09412678     3.25559380    -0.44705690     0.16274806    -0.82202158
O       0.00216523    -1.01450978     3.13886079    -0.78033910     0.87556302     0.13723860
O       5.58180201     6.92007402     1.60584800     1.13897701    -0.00832961    -0.02622449
O       5.78172401     2.72362498     1.91166398     0.01189007    -0.25878600    -1.98375518
O       1.83010200     6.43959701     1.53557199     0.71370842     0.54618710     0.02308672
O       1.81995502     3.00887898     1.86879602     0.08825006    -0.46617769    -1.51940555
