# total energy = -39036.05922168 eV

CRYSTAL
PRIMVEC
        7.60600008     0.00000000     0.00000000
        0.00000000     7.60600008     0.00000000
       -3.79573973    -3.79573973     9.71340985
PRIMCOORD
46 1
Ti      2.03173943     4.60145046     6.17100960    -0.98882402     1.47903613    -0.25684405
Ti      3.68271001     6.72170500     1.32402598    -1.12191336     1.48062507     0.66631963
Ti      2.03238143     0.78690546     6.10587661     0.58871908    -0.64613492    -0.18388048
Ti      3.83496801     2.94692201     1.21309101    -0.29945881    -1.29681375    -1.81698848
Ti     -1.87458056     4.71827343     6.07952264     0.53761093     0.33125128    -0.80983249
Ti     -0.12848699     6.70426400     1.25395402     0.92833776    -0.26008981    -0.83243070
Ti     -1.72616354     0.96072945     5.94380460    -0.86006441    -0.07431031     0.32219586
Ti     -0.00926700     3.01069200     1.21135801     0.53760219     0.16474761    -1.12318298
Ti      3.93821943     0.92197647     8.39595064    -1.00962451     1.92947094     0.50340496
Ti      5.61020200     2.69381098     3.48991999     0.25014940     0.19281867     0.81278540
Ti      3.81320343    -2.76008154     8.56583263    -0.66495103    -0.74460846     0.80205104
Ti      5.54307100    -1.09697798     3.62911398     0.29964419    -0.21740228     0.63462100
Ti      0.09172843     1.11617548     8.34829961     0.64738165    -1.59827211    -0.14294568
Ti      1.85666802     2.81035401     3.43094203     0.47629267    -0.61680042     0.59760610
Ti     -0.06125655    -2.86503157     8.55358064     0.72623972     0.92868512     0.35235336
Ti      1.74942199    -0.99026801     3.80418699     0.06650984     0.06461853     0.12293914
O       1.93380846    -1.04984856     5.80715960    -0.31988906     0.03937106    -1.28093487
O       3.73907898     1.02364201     1.16075501    -0.45054434    -0.58595334    -2.96189986
O      -1.88553257     2.86577146     5.43620661     0.25681371    -0.59982908     0.40960645
O      -0.09715901     4.84917701     0.89513999    -0.44600712    -1.00358910    -0.47035676
O      -1.84992053    -0.97760057     5.75643860     0.39115081    -0.55818902    -0.46440028
O      -0.02484403     1.07596700     0.82729597     0.21822323    -1.23382093    -0.91272448
O       3.64951043     2.79119943     8.91064960     0.65239196     1.75602940     0.47236633
O       5.34954500     4.68939601     3.91099300     0.79333012    -0.65392434     0.47164077
O       3.97627146    -0.84617956     8.88971260    -0.06536981    -1.32668818     0.58671130
O       5.59492402     0.74760701     4.02063900     0.56552695     2.65639664     0.70330265
O       0.08333145     2.83212246     9.03207260    -0.04318504     1.06553214     0.07514360
O       1.90670802     4.52478098     4.22612700    -0.05860266    -0.35188362    -0.74311208
O       0.02342647    -0.67716553     8.91644261    -0.08107411    -1.28919094     0.90601724
O       1.84912100     0.94316701     4.10962100     0.05912820     0.09831285     0.12531381
O       2.05005346     0.81094747     8.11336264    -1.27800792     0.33391598    -0.65218318
O       3.79789502     2.51771899     3.09060798     0.10584644     1.06415480     1.16818373
O       1.98478247    -2.67171756     8.06277562    -1.24639671    -0.56716191     1.40179836
O       3.64591600    -0.88556500     3.32651302    -0.49993500    -0.83321591    -0.69215614
O      -1.85243053     0.90037445     7.99393061     1.83135555     0.84518826    -0.98242300
O       0.04589602     2.51772698     3.07284799    -0.98234432     0.90052973     0.54495966
O      -1.93003257    -2.81685855     8.00763064     1.53615758    -0.37633148     1.01849867
O      -0.07914698    -1.06230200     3.29336600     0.37722160    -0.00446241     0.38594972
O       3.82287044     4.80371746     6.54737062     0.66747148    -0.81617798    -0.70733671
O       5.63258498     6.80920599     1.78253097    -1.07279062    -0.72878872    -1.20063697
O       3.85568646     1.10735144     6.42046762     0.82646908     0.08868098    -0.21171191
O       5.74141298     2.98136902     1.48961401    -1.26293148     0.33967474     0.83311178
O       0.08057443     4.62725446     6.48635363    -0.88899447    -0.36099047     0.76972352
O       1.70235797     6.38596003     1.57159103     2.54904018     1.09561405     0.65887063
O       0.29445645     1.39569346     6.39171763    -2.32191476    -0.22609621     0.36008390
O       1.94917201     3.18605499     1.50442801     0.07421004     0.11607198     0.74042271
