# total energy = -19069.53456698 eV

CRYSTAL
PRIMVEC
        5.93400000     0.00000000     0.00000000
        0.00000000     9.29699974     0.00000000
        0.00000000     0.00000000     4.64899994
PRIMCOORD
22 1
Ti      4.23361501     6.96069198     2.41862399     1.72824014    -0.15681061    -1.98588405
Ti      4.38833501     2.51645198     2.09626699     4.67108734    -2.41040677     4.81855070
Ti      1.58818502     7.08201602     2.53974800    -0.17691845     1.73611723    -1.35124968
Ti      1.64815001     2.23951299     1.81467198     0.64368209    -1.12942922    -0.43786623
Ti      2.94625398     4.49599797     0.05925102     1.48704923     4.91422354    -0.22814435
Ti      2.93778799     0.15488002     4.49716100     4.27095489     0.33372983     0.50096318
Ti      5.78950302     4.78810001     4.54683900    -0.93267727     0.13026910     0.94214485
Ti      5.83248603     8.92384300     0.16997401    -0.10320720    -1.00841814     1.20760492
O       4.61831899     5.23366000     1.47094501    -0.45036565     0.89624190    -3.33023880
O       4.74584600     0.74931800     1.07895098    -0.09248930     1.74882131    -0.46690531
O       1.49590799     0.72511502     0.70052098    -2.99336657     2.93889387     3.15177307
O       4.37678402     8.53993300     3.58990401     1.87599660    -0.20488563     1.54431672
O       4.24043299     3.95386599     3.58463299     2.49043907    -1.22591401    -0.16284011
O       1.64491298     8.66309398     3.66316400    -3.23038072    -2.79599679    -2.12392329
O       1.42446901     3.72299903     4.55297999    -2.57245292    -0.19210184    -2.58176777
O       2.91365798     6.10902099     3.39091802    -0.45068318    -0.95433137     1.62185325
O       2.88601498     1.58640899     3.09576401     0.54464547     0.06955634     0.63695351
O       0.24016699     6.16723202     3.27471800    -1.76247104    -2.35028792     3.35285989
O       3.08268598     8.14611998     1.56371899    -0.74635064    -1.69312914    -1.29208112
O       3.21893901     3.02561199     1.07534098    -2.74320328    -0.36760695    -1.99581031
O       5.86849802     7.66401199     1.64963202     1.10610159     1.80876069    -3.54591999
O       0.20018701     3.19818701     1.69592498    -2.56362992    -0.08729490     1.72561118
