# total energy = -19960.21399616 eV

CRYSTAL
PRIMVEC
        7.60600008     0.00000000     0.00000000
        0.00000000     7.60600008     0.00000000
       -1.89786986    -1.89786986     4.85670466
PRIMCOORD
24 1
Ti      3.73446100     6.55997499     1.34040100    -0.67880491     0.95807515    -0.97298499
Ti      3.74803302     2.95539901     1.23927898     0.99779794    -2.02419247     0.18163436
Ti     -0.05777801     6.61909700     1.16269899     0.81683284    -0.68712320     0.50146249
Ti      0.04607800     2.86108301     1.16842099     0.01774268     0.64371911    -1.09850346
Ti      5.79756922     2.88926725     3.54758280    -1.33112128     0.19583174     0.83047023
Ti      5.75437322    -0.99406777     3.65213081     1.05048064    -0.02908099    -0.30458122
Ti      1.81855424     2.90271624     3.63349584     1.51760500     0.36956562     0.15815813
Ti      1.87426422    -0.94602975     3.66181582    -0.80822195    -0.15395977     1.21617930
O       3.65665099     4.76805800     0.86989702     0.42606460     1.03176660    -1.24630904
O       3.57718000     1.09099701     0.82869401     1.01991458    -1.74497340     0.50006535
O       0.09648700     4.73012298     0.73796202    -0.31182376    -0.35627944    -0.27346906
O       0.23030498     0.87791400     0.67713902    -1.04082074     1.16436255     1.02914176
O      -1.51434278     4.72171620     4.09529882    -1.11530923    -0.35874770    -0.59718315
O       5.91573222     0.96490524     4.00178479    -1.02966678    -0.58856404     0.05231477
O       1.57472921     4.79309623     4.08859880     0.94987899    -1.30358218     1.24887012
O       1.82699324     0.94763120     4.00427282     0.64249989     1.27399572     0.17776331
O       3.82738321     3.08885021     3.30654484     0.01824121    -0.65034844    -0.77797908
O       3.77817623    -1.26322478     3.34152880     0.72015829     0.96367579    -0.83485550
O       0.03507022     2.78415624     3.20185479     0.26540376    -0.21903416    -1.08911713
O      -0.01022476    -1.04946575     3.15019079    -1.53304088     0.95565575     0.09589498
O       5.69187500     6.52306398     1.53502599    -1.10653122     0.63867023     0.35793703
O       5.78448198     3.08304402     1.53589903    -0.26366570    -1.00136741     0.61539171
O       1.76847100     6.43103698     1.79469798     2.52785506     0.80818261    -1.23268990
O       1.95980900     2.91829299     1.56209700    -1.75146878     0.11375233     1.46238874
