# total energy = -19891.41386255 eV

CRYSTAL
PRIMVEC
        8.57880978     0.00000000     0.00000000
        0.00002667     3.04348262     0.00000000
        0.00000000     0.00000000    13.64816278
PRIMCOORD
24 1
Ti      3.10942153     1.80356488     5.06337117    -0.01680165     0.24517792     1.91530159
Ti      5.46941457     1.23991745     8.58479203     0.01680165    -0.24517792    -1.91530159
Ti      7.39868009     1.23991843     1.76065590    -0.02123346    -0.24533527    -1.91404843
Ti      1.18015607     1.80356402    11.88750741     0.02123346     0.24533527     1.91404843
Ti      3.10940855     0.28182363     1.76071063    -0.01624269     0.24180206    -1.91365634
Ti      5.46942761     2.76165882    11.88745268     0.01624269    -0.24180206     1.91365634
Ti      1.18014303     0.28182259     8.58473729     0.02199374     0.24132486    -1.91491361
Ti      7.39869313     2.76165986     5.06342590    -0.02199374    -0.24132486     1.91491361
O       2.71525672     1.07166188     6.96455316     2.73646288     0.23950349    -1.08984887
O       5.86357944     1.97182051     6.68361003    -2.73646288    -0.23950349     1.08984887
O       1.57421685     1.07167423     0.14051551    -2.73363518     0.23948781    -1.09159259
O       7.00461937     1.97180816    13.50764727     2.73363518    -0.23948781     1.09159259
O       5.86356640     0.45007914     0.14047119    -2.73634358    -0.23892988    -1.09274445
O       2.71526976     2.59340319    13.50769160     2.73634358     0.23892988     1.09274445
O       7.00460632     0.45006685     6.96459743     2.73830764    -0.23870156    -1.09154785
O       1.57422972     2.59341554     6.68356577    -2.73830764     0.23870156     1.09154785
O       0.31170401     1.85121865     3.68670932    -0.96731056     0.40911434     1.98529115
O       8.26713214     1.19226368     9.96145381     0.96731056    -0.40911434    -1.98529115
O       4.60112025     1.19223547     3.13741563    -0.96538840    -0.40888757    -1.98776327
O       3.97771591     1.85124692    10.51074733     0.96538840     0.40888757     1.98776327
O       0.31169097     0.32947734     3.13737207    -0.96632326     0.41060250    -1.98521325
O       8.26714519     2.71400505    10.51079089     0.96632326    -0.41060250     1.98521325
O       3.97770292     0.32950555     9.96149731     0.96508990     0.41040889    -1.98538063
O       4.60113323     2.71397678     3.68666576    -0.96508990    -0.41040889     1.98538063
