# total energy = -19960.16138945 eV

CRYSTAL
PRIMVEC
        7.60600008     0.00000000     0.00000000
        0.00000000     7.60600008     0.00000000
       -1.89786986    -1.89786986     4.85670466
PRIMCOORD
24 1
Ti      3.79539899     6.72482101     1.32881800    -0.41538424    -1.18372888    -1.02277185
Ti      3.73145999     2.87115399     1.15218699     1.00852844     2.22572693     2.65291999
Ti     -0.01394498     6.47662597     1.20565998     0.32815105    -1.32296805    -0.94723589
Ti      0.09871997     2.67170798     1.17585900    -1.44227731     2.44264584     0.26120155
Ti      5.73030523     2.80254420     3.50888079     0.10249655    -0.51845209     0.01279176
Ti      5.67860922    -1.08251176     3.65511680     0.20669749     0.24035144    -0.76562801
Ti      1.94781324     2.95173922     3.70669581    -0.16282134     2.28157131    -0.29893328
Ti      1.85262225    -0.80104476     3.75900779     0.00013164    -2.35311845    -1.74849247
O       3.81598298     4.77162698     0.79486201    -0.15204044     0.80667106    -0.07755684
O       3.79522600     1.03783301     0.91037400    -0.30370782    -0.48886125    -0.17327133
O       0.09610198     4.52794102     0.66628200    -0.38215760     2.03944786     0.03048661
O       0.18515102     0.81647298     0.66952702    -0.28777109     0.48594125     1.00836981
O       5.70102623     4.62166122     4.02978282    -0.19895306     1.85560158     0.77591526
O       5.86368521     0.93421920     3.77975080    -0.65676001    -1.58114367     0.90786920
O       1.72659720     4.85766723     4.23462082     0.29382938     0.29442536    -0.06222021
O       1.80921421     1.08599623     4.08217782    -0.26933807    -1.25893496    -0.89921178
O       3.81641823     3.19976623     3.15580780    -1.32382448    -1.31659505     0.16217702
O       3.71599621    -0.95327778     3.37961480     0.50999367     0.36362226    -0.16375645
O      -0.06733976     3.18376624     3.07737479     1.39755244    -1.51457676     0.29885357
O      -0.10334176    -1.01217378     3.08513083     1.31559927     0.18109598     1.29920282
O       5.67343799     6.44620701     1.57930701    -0.39095489     0.54532784     0.07451471
O       5.71536598     2.88106299     1.54228000    -0.36501939    -0.85661116    -0.62465437
O       1.90558098     6.61730701     1.76183998    -0.24560549     0.10486042    -0.03728281
O       1.84024802     3.08944400     1.72424501     1.43363531    -1.47229906    -0.66328701
