# total energy = -19924.63652694 eV

CRYSTAL
PRIMVEC
        6.22647931     0.00000000     0.00000000
        2.25050940     6.23301262     0.00000000
        0.00000000     0.00000000    11.32399638
PRIMCOORD
24 1
Ti      3.59044915     3.69367741     4.20112191    -0.01540966    -2.29846141     0.74345661
Ti      4.88653978     2.53933505     7.12287460     0.01540966     2.29846141    -0.74345661
Ti      6.28679680     2.53933716     1.46083113    -0.46397374    -0.91991380     0.14610325
Ti      2.19019216     3.69367548     9.86316550     0.46397374     0.91991380    -0.14610325
Ti      2.46519461     0.57717126     1.46087653    -0.01540966    -2.29846141    -0.74345661
Ti      6.01179434     5.65584132     9.86312010     0.01540966     2.29846141     0.74345661
Ti      1.06493749     0.57716897     7.12282920     0.46397374     0.91991380     0.14610325
Ti      7.41205147     5.65584367     4.20116731    -0.46397374    -0.91991380    -0.14610325
O       2.76316268     2.19474963     5.77854868     1.82606859     2.13067861    -0.79689701
O       5.71382624     4.03826282     5.54544783    -1.82606859    -2.13067861     0.79689701
O       1.93500779     2.19477477     0.11658692    -0.36444655    -0.49163033     1.36511436
O       6.54198121     4.03823773    11.20740927     0.36444655     0.49163033    -1.36511436
O       4.58857168     0.92175655     0.11655017    -1.82606859    -2.13067861    -0.79689701
O       3.88841725     5.31125590    11.20744602     1.82606859     2.13067861     0.79689701
O       5.41672664     0.92173140     5.77858542     0.36444655     0.49163033     1.36511436
O       3.06026223     5.31128107     5.54541108    -0.36444655    -0.49163033    -1.36511436
O       1.59510974     3.79127151     3.05889394     0.57231029     2.28392541     2.20983879
O       6.88187919     2.44174095     8.26510257    -0.57231029    -2.28392541    -2.20983879
O       4.22107555     2.44168289     2.60314031     0.79633548     1.87351832     1.14428120
O       4.25591338     3.79132957     8.72085601    -0.79633548    -1.87351832    -1.14428120
O       0.46985518     0.67476524     2.60310413     0.57231029     2.28392541    -2.20983879
O       8.00713375     5.55824722     8.72089219    -0.57231029    -2.28392541     2.20983879
O       3.13065881     0.67482330     8.26513863    -0.79633548    -1.87351832     1.14428120
O       5.34633011     5.55818916     3.05885782     0.79633548     1.87351832    -1.14428120
