# total energy = -39481.04584684 eV

CRYSTAL
PRIMVEC
        5.93188753     0.00000000     0.00000000
        0.00000000     9.29428401    -0.00002646
        0.00000000    -0.00002646     9.29428401
PRIMCOORD
47 1
Ti      4.44891576     6.97429460     6.94513547     0.00000000     0.01866776    -0.00612051
Ti      4.44891576     7.03957960     2.39242437     0.00000000     0.00584206     0.00584206
Ti      4.44891576     2.33886206     6.98601729     0.00000000     0.27498653     0.27498653
Ti      4.44891576     2.29800669     2.32716583     0.00000000    -0.00612051     0.01866776
Ti      1.48297199     6.93942271     6.98197110     0.00000000     0.00181237     0.03251187
Ti      1.48297199     6.99036766     2.34321243     0.00000000     0.00695561     0.00695561
Ti      1.48297199     2.14105569     6.78821092     0.00000000     0.07317979     0.07317979
Ti      1.48297199     2.33484233     2.29229393     0.00000000     0.03251187     0.00181237
Ti      2.96299040     4.65456768     4.63746823    -0.00225152    -0.07614428     0.06405083
Ti      3.09340271     4.73787664     0.09072141    -0.25523376     0.03640221     0.03640221
Ti      2.99723296    -0.02209644     4.62505879    -0.12982507     0.05332341     0.05332341
Ti      2.96299040    -0.00966055     0.00743890    -0.00225152     0.06405083    -0.07614428
Ti      0.00295336     4.65456768     4.63746823     0.00225152    -0.07614428     0.06405083
Ti     -0.12745894     4.73787664     0.09072141     0.25523376     0.03640221     0.03640221
Ti     -0.03128920    -0.02209644     4.62505879     0.12982507     0.05332341     0.05332341
Ti      0.00295336    -0.00966055     0.00743890     0.00225152     0.06405083    -0.07614428
O       4.44891576     5.55689472     5.55373513     0.00000000     0.01273442    -0.05219161
O       4.44891576     5.59756416     0.95040893     0.00000000     0.34882889     0.34882889
O       4.44891576     0.93111358     5.57826881     0.00000000    -0.07008238    -0.07008238
O       4.44891576     0.90660635     0.90976595     0.00000000    -0.05219161     0.01273442
O       1.48297199     5.56194985     5.55304652     0.00000000     0.03235812    -0.13899440
O       1.48297199     5.45709916     0.80994393     0.00000000    -0.07475331    -0.07475331
O       1.48297199     0.87976807     5.52692330     0.00000000    -0.07923063    -0.07923063
O       1.48297199     0.90591775     0.91482107     0.00000000    -0.13899440     0.03235812
O       4.44891576     8.38592234     8.37580966     0.00000000    -0.00006685    -0.00968432
O       4.44891576     8.37863686     3.73148162     0.00000000     0.01952651     0.01952651
O       4.44891576     3.75255632     8.39971156     0.00000000    -0.00198978    -0.00198978
O       4.44891576     3.72868088     3.73879357     0.00000000    -0.00968432    -0.00006685
O       1.48297199     8.38256314     8.37915357     0.00000000     0.03468857     0.00491544
O       1.48297199     8.36964279     3.72248756     0.00000000    -0.11595371    -0.11595371
O       1.48297199     3.73202479     3.73543436     0.00000000     0.00491544     0.03468857
O       2.94831209     5.99573565     7.88976636    -0.06366542     0.09341053    -0.16684460
O       2.96455457     6.05549880     3.21870177     0.04020847    -0.02876140    -0.00697026
O       2.92368403     1.48390470     7.92069569    -0.01853560    -0.00099990    -0.05416314
O       2.96751315     1.41747247     3.23197441     0.06445192    -0.01968386    -0.05258962
O       0.01763167     5.99573565     7.88976636     0.06366542     0.09341053    -0.16684460
O       0.00138919     6.05549880     3.21870177    -0.04020847    -0.02876140    -0.00697026
O       0.04225973     1.48390470     7.92069569     0.01853560    -0.00099990    -0.05416314
O      -0.00156939     1.41747247     3.23197441    -0.06445192    -0.01968386    -0.05258962
O       2.96751315     7.87910318     6.06460125     0.06445192    -0.05258962    -0.01968386
O       2.96455457     7.86585700     1.40834357     0.04020847    -0.00697026    -0.02876140
O       2.92368403     3.27354046     6.13105994    -0.01853560    -0.05416314    -0.00099990
O       2.94831209     3.24263759     1.34860687    -0.06366542    -0.16684460     0.09341053
O      -0.00156939     7.87910318     6.06460125    -0.06445192    -0.05258962    -0.01968386
O       0.00138919     7.86585700     1.40834357    -0.04020847    -0.00697026    -0.02876140
O       0.04225973     3.27354046     6.13105994     0.01853560    -0.05416314    -0.00099990
O       0.01763167     3.24263759     1.34860687     0.06366542    -0.16684460     0.09341053
