# total energy = -19961.56270805 eV

CRYSTAL
PRIMVEC
        7.60600008     0.00000000     0.00000000
        0.00000000     7.60600008     0.00000000
       -1.89786986    -1.89786986     4.85670466
PRIMCOORD
24 1
Ti      3.81551403     6.64835098     1.20998098     0.96254990    -0.47379741    -2.02073588
Ti      3.81046499     2.76726200     1.21625898    -0.17482042     0.45129716    -0.84502422
Ti      0.02436099     6.69217299     1.22992498    -1.13314395     0.15858467     0.30162548
Ti     -0.06874600     2.84513598     1.25598998     0.16802577    -0.03098746     0.14141690
Ti      5.64848120     2.91544221     3.65761881     1.22199436    -0.43475391     0.44694377
Ti      5.63432724    -0.89050276     3.64698081     1.71425590     0.27388687    -0.11428352
Ti      1.99514820     2.81606722     3.62049782    -1.88870737    -0.00450046     0.92943768
Ti      1.97881821    -0.95963278     3.53306181    -1.47177584    -0.17753217     1.57081323
O       3.82652700     4.67389202     0.81789101    -0.26273650     0.18976600     0.08876763
O       3.98227302     0.88521898     0.65468899    -0.66598924    -0.17249100     0.82296955
O      -0.17108798     4.76972702     0.77276299     0.51198628     0.37795565     0.44563688
O      -0.15127198     0.99863399     0.77174702     0.33801483    -0.84311466     0.54254951
O       5.72062224     4.83334821     4.10426282    -0.03932015    -0.98622720    -0.28718127
O       5.62132023     0.94046524     4.12968180     0.02113448     0.75738068    -0.56917072
O       1.90937725     4.65131621     4.03009080    -0.05789227     0.88613772    -0.28691954
O       2.06549523     0.86183723     4.13042979    -0.38307600     0.63565716    -0.87756566
O       3.75320721     2.87257520     3.23305180     1.38604083    -0.11423724    -0.10969564
O       3.85244023    -0.93437076     3.09897379    -1.34395752    -0.32315128     1.12156729
O      -0.09697676     2.76224222     3.22089782     0.23390543     0.28348583     0.41793580
O       0.02533325    -0.87645178     3.26557382     0.17548197    -0.21562745    -0.74300307
O       5.66850998     6.69456900     1.64995699     1.17676941    -0.17344720    -0.19918781
O       5.65751299     2.73567599     1.66915898    -0.40172422     0.45965891     0.19096336
O       1.91383498     6.80487902     1.58426397    -0.28698304    -0.35836229    -0.15740377
O       1.86022102     2.77595998     1.70429101     0.19996762    -0.16558116    -0.81045701
