# total energy = -19960.43682266 eV

CRYSTAL
PRIMVEC
        5.93400000     0.00000000     0.00000000
        0.00000000     9.29699974     0.00000000
        0.00000000     0.00000000     4.64899994
PRIMCOORD
24 1
Ti      4.46630499     6.88222002     2.35848897    -0.75032377     1.36543498    -0.75180936
Ti      4.44276401     2.36962101     2.31762601     0.63803157    -1.53981291     0.14503136
Ti      1.43468599     6.93633299     2.28338502     0.57010249     1.21734581    -0.27994310
Ti      1.55357799     2.44586699     2.33921300    -0.41326951    -1.77583307     0.16936891
Ti      3.00034801     4.71925500     4.53690898    -0.48125695    -0.50257758     0.66519631
Ti      2.96114503     9.20256902     0.02373799    -0.28138935     0.87054011     0.12211099
Ti      5.91220700     4.64363001     0.00189001     0.57712674    -0.56771573     0.60528136
Ti      0.00611602     0.03771600     0.03790301     0.00556284     0.96549279    -0.11706468
O       4.43266699     5.64759599     0.76703798    -0.34799766     0.10346843     0.57333591
O       4.33506702     0.94346202     0.94815799     1.38330595    -0.23151918    -0.31049810
O       1.46026198     5.63764302     0.82023098     0.27334873    -0.67024468    -0.33702650
O       1.53342401     0.88276597     0.94034702    -0.89089298    -0.09764822    -0.45539242
O       4.48210898     8.41579802     3.86009102     0.32198374    -1.13499206    -1.05829062
O       4.45188502     3.70499700     3.81359697    -0.32084243     0.17345054    -0.08710669
O       1.57020299     8.27089701     3.69818702    -1.09011858     0.52290730     1.13021623
O       1.40945302     3.61290502     3.83227402     0.68947268     1.17337324     0.09349872
O       2.91826198     5.92888498     3.03773999     0.58684526    -0.75237011     1.14444009
O       2.86638002     1.34598303     3.28642203     0.36803299     1.32622898    -1.01577433
O       5.88447901     5.99413798     3.24271902     0.32901879     0.30908991    -0.74591921
O       0.03016702     1.45564803     3.15700300    -0.11838520    -0.78104872     0.96200997
O       2.99202098     7.91141801     1.61729898     0.06248040    -0.17479626    -1.11768904
O       3.10481601     3.40295998     1.49049398    -1.45355597    -0.43760192     0.01891638
O       5.91837398     7.82426702     1.35844002    -0.18573862    -0.04070881     0.84241995
O       5.88022797     3.25152501     1.43866800     0.52845857     0.67953716    -0.19531212
