# total energy = -19906.12415879 eV

CRYSTAL
PRIMVEC
        6.64357243     0.00000000     0.00000000
        1.05471883     6.99166338     0.00000000
        0.00000000     0.00000000    11.92430167
PRIMCOORD
24 1
Ti      3.03300084     4.14325317     4.42383091    -0.18670073    -1.48809695     0.65127764
Ti      4.66529033     2.84841001     7.50047103     0.18670073     1.48809695    -0.65127764
Ti      6.15934584     2.84841237     1.53827238     0.23938676     0.15253615    -0.47002791
Ti      1.53894536     4.14325108    10.38602970    -0.23938676    -0.15253615     0.47002791
Ti      2.50564158     0.64742161     1.53832020    -0.18670073    -1.48809695    -0.65127764
Ti      5.19264961     6.34424178    10.38598188     0.18670073     1.48809695     0.65127764
Ti      1.01158605     0.64741905     7.50042321    -0.23938676    -0.15253615    -0.47002791
Ti      6.68670514     6.34424434     4.42387873     0.23938676     0.15253615     0.47002791
O       2.47411702     2.46188345     6.08487993     1.66306522     1.75263529    -0.38519613
O       5.22417415     4.52977974     5.83942195    -1.66306522    -1.75263529     0.38519613
O       1.59048111     2.46191171     0.12276736    -1.05988625     0.68074507     0.50117247
O       6.10781013     4.52975154    11.80153424     1.05988625    -0.68074507    -0.50117247
O       4.69681487     1.03394797     0.12272868    -1.66306522    -1.75263529    -0.38519613
O       3.00147630     5.95771521    11.80157292     1.66306522     1.75263529     0.38519613
O       5.58045085     1.03391977     6.08491867     1.05988625    -0.68074507     0.50117247
O       2.11784026     5.95774349     5.83938327    -1.05988625     0.68074507    -0.50117247
O       0.88291612     4.25272599     3.22105142     0.49322030     0.81663177     1.14762723
O       6.81537505     2.73893712     8.70325052    -0.49322030    -0.81663177    -1.14762723
O       3.97634490     2.73887209     2.74113748     0.53684731     1.19385337     0.42798342
O       3.72194627     4.25279102     9.18316426    -0.53684731    -1.19385337    -0.42798342
O       0.35555683     0.75689423     2.74109934     0.49322030     0.81663177    -1.14762723
O       7.34273433     6.23476889     9.18320233    -0.49322030    -0.81663177     1.14762723
O       3.19458698     0.75695925     8.70328852    -0.53684731    -1.19385337     0.42798342
O       4.50370418     6.23470386     3.22101336     0.53684731     1.19385337    -0.42798342
