# total energy = -19073.70708327 eV

CRYSTAL
PRIMVEC
        7.60600008     0.00000000     0.00000000
        0.00000000     7.60600008     0.00000000
       -1.89786986    -1.89786986     4.85670466
PRIMCOORD
22 1
Ti      3.80404702     6.69339301     1.01873802     0.38418672     0.71992792     1.52118218
Ti      3.73697899     2.93974600     1.18895100     1.54622808    -0.88871036     1.67371936
Ti      0.07564700     6.69473299     1.03067001     0.22710640    -1.51575972     1.16577537
Ti     -0.09831103     2.94699398     1.33024402    -0.39524889    -0.37146258    -1.22189049
Ti      5.61264421     2.85635920     3.71471280    -1.00170319    -0.37672280    -0.14301175
Ti     -1.36775079    -0.90546376     3.73246384    -0.50334608    -1.34480469    -0.93963031
Ti      1.73809924     2.49228721     3.61760681     0.96906328     1.22416540    -0.50042813
Ti      1.61307821    -0.90757978     3.70440284    -0.61810011    -0.25282387    -1.18962751
O       3.95067098     4.77797901     0.59495700    -0.54227388    -0.67779627     0.34800768
O       4.06982301     1.08143499     0.63771002    -0.98095387     0.14883762     2.17747990
O       7.17965197     4.76270802     0.80037302     1.33534509     0.18085558    -0.10548649
O       7.34795802     0.74493001     0.62479900    -0.07254859     1.45124789     1.85306416
O       5.89804923     4.67713021     3.93619083     0.84556132     0.16525129     0.13381054
O       5.77392124     0.72050224     4.21989779    -0.34360570     3.18116413     0.77327525
O       1.83897323     4.91952324     4.10006983    -0.22508474    -1.78846182    -1.39728890
O       2.33660125     0.78257325     3.72830482    -0.33055271     2.17168875     0.48850567
O       3.85477220     2.95052423     3.14323280    -0.43629914    -0.51844000    -0.04235560
O      -0.22715378     2.41627820     3.35234481     3.81150913     0.40950824    -0.78302436
O       5.44559401     6.74698401     2.07796402     0.15027795    -0.30854663    -1.17795135
O       5.76763398     2.94309500     1.62668700    -1.42249112    -0.51405653     0.05370239
O       2.00787899     6.72031501     1.80804197    -0.25862556    -0.46418379    -1.31730648
O       1.96177701     3.18513200     1.85576799    -2.13844566    -0.63087747    -1.37052088
