# total energy = -4989.25209329 eV

CRYSTAL
PRIMVEC
        3.27091089     0.00000000     0.00000000
        0.00000000     4.63692949     0.00000000
        0.00000000    -0.00006343     4.89321109
PRIMCOORD
6 1
Ti      1.63545544     2.31843287     2.44660555     0.00000000     0.00000000     0.00000000
Ti      0.00000000     0.00000000     0.00000000     0.00000000     0.00000000     0.00000000
O       1.63545544     0.90365683     0.95361476     0.00000000    -0.11234979    -0.19231036
O       1.63545544     3.73320884     3.93959627     0.00000000     0.11234979     0.19231036
O       0.00000000     1.41475034     3.40022130    -0.00000000     0.11234954    -0.19238749
O       0.00000000     3.22211540     1.49298974    -0.00000000    -0.11234954     0.19238749
