# total energy = -19960.59876421 eV

CRYSTAL
PRIMVEC
        5.93400000     0.00000000     0.00000000
        0.00000000     9.29699974     0.00000000
        0.00000000     0.00000000     4.64899994
PRIMCOORD
24 1
Ti      4.49600898     6.84822599     2.24442699    -1.06669376     0.49463827     1.34121389
Ti      4.46454902     2.50791101     2.36487302     0.22993230    -1.89125739    -0.27312839
Ti      1.50093200     6.85951302     2.14620100     0.92903916     0.56194283     1.58167409
Ti      1.47185000     2.35224198     2.39863400     0.05287039    -1.38003216     0.03687812
Ti      2.94853002     4.61604199     0.07459600     0.55534126     0.18516578    -1.27236898
Ti      2.94551800     9.26583602     0.06741300     1.15269051     0.62643666    -0.30179492
Ti      0.02390997     4.65571198     4.57788201    -0.57544267    -0.55922054    -0.19908728
Ti      0.00499099     9.27467000     0.07020002    -0.86604351     0.39040391    -0.37928517
O       4.43792998     5.57232201     0.85587297     0.05689133    -0.16113958    -0.38312305
O       4.36151398     0.89378397     1.01663300     0.87869926    -0.01180754    -0.05476297
O       1.45653001     5.57491202     0.78359202     0.17441522     0.31547756     0.32176031
O       1.48575101     0.93650699     1.06329903    -0.42592885    -0.55080815    -0.60083849
O       4.43743800     8.40696198     3.77531201     0.52026317     0.20965837     0.17705754
O       4.45059102     3.83883100     3.70134202    -0.63917365    -0.10447142     0.09472128
O       1.50736701     8.42671002     3.84999199    -1.11176239    -0.11016487    -0.54917987
O       1.45970301     3.80886301     3.68782001     0.63934823     0.12516341     0.46393594
O       2.92607999     6.07893001     3.17474001     0.02616124    -0.44981492     0.30837180
O       2.94365498     1.53519199     3.33043999     0.02871563     0.36082335    -0.44845352
O       5.92818498     5.87586898     3.06133998     0.18210231     0.99406058     0.35626376
O       5.90766603     1.59668302     3.32887702     0.13027887    -0.48987272    -0.17731285
O       2.98538902     7.68437600     1.35775002    -0.34866563     1.45417355    -0.42428977
O       3.00688197     3.24711400     1.30606798    -0.44631256     0.07375958     0.73328558
O       5.91680301     7.84418001     1.45753999     0.23852904     0.55950002    -0.33162358
O       0.01899799     3.37057401     1.42323301    -0.31525490    -0.64261508    -0.01991346
