# total energy = -19953.70468830 eV

CRYSTAL
PRIMVEC
        4.90482496     0.00000000     0.00000000
        0.77867913     5.16181398     0.00000000
        0.00000000     0.00000000     8.80348834
PRIMCOORD
24 1
Ti      2.23920765     3.05888613     3.26603141     1.36510228    -0.43002899     0.25381117
Ti      3.44429637     2.10292770     5.53745713    -1.36510228     0.43002899    -0.25381117
Ti      4.54732954     2.10292944     1.13567765    -2.03467615    -0.63733146     1.37722349
Ti      1.13617450     3.05888459     7.66781099     2.03467615     0.63733146    -1.37722349
Ti      1.84986819     0.47797924     1.13571296     1.36487473    -0.42778185    -0.25792674
Ti      3.83363585     4.68383475     7.66777569    -1.36487473     0.42778185     0.25792674
Ti      0.74683501     0.47797734     5.53742182     2.03472295     0.63892863     1.38158640
Ti      4.93666903     4.68383664     3.26606672    -2.03472295    -0.63892863    -1.38158640
O       1.82659421     1.81756239     4.49235276    -1.05091387    -0.59481028    -0.51446585
O       3.85690982     3.34425145     4.31113573     1.05091387     0.59481028     0.51446585
O       1.17422238     1.81758325     0.09063684     1.16392855    -1.09786403     0.00390576
O       4.50928170     3.34423063     8.71285145    -1.16392855     1.09786403    -0.00390576
O       3.46757035     0.76334440     0.09060829     1.05052152     0.59458171    -0.51481578
O       2.21593368     4.39846944     8.71288001    -1.05052152    -0.59458171     0.51481578
O       4.11994223     0.76332358     4.49238136    -1.16394243     1.09786917     0.00417213
O       1.56356176     4.39849031     4.31110718     1.16394243    -1.09786917    -0.00417213
O       0.65184041     3.13970786     2.37804187    -0.66818985    -0.57272295    -1.11886789
O       5.03166361     2.02210592     6.42544667     0.66818985     0.57272295     1.11886789
O       2.93566088     2.02205791     2.02373040     0.42776565    -1.12504446    -0.91249642
O       2.74784314     3.13975587     6.77975799    -0.42776565     1.12504446     0.91249642
O       0.26250094     0.55880082     2.02370225    -0.66875164    -0.57300783     1.11938777
O       5.42100308     4.60301297     6.77978609     0.66875164     0.57300783    -1.11938777
O       2.35850367     0.55884882     6.42547472    -0.42809141     1.12526351    -0.91257895
O       3.32500035     4.60296496     2.37801377     0.42809141    -1.12526351     0.91257895
