# total energy = -19076.24931625 eV

CRYSTAL
PRIMVEC
        7.60600008     0.00000000     0.00000000
        0.00000000     7.60600008     0.00000000
       -1.89786986    -1.89786986     4.85670466
PRIMCOORD
22 1
Ti      3.78367301     6.56492899     1.25544202    -0.23914148    -0.11268944     0.04881113
Ti      3.78005402     2.80097201     1.22108000    -0.27328548     0.38137342    -0.61703851
Ti     -0.03765498     6.61968598     1.19566499     0.72551005     0.55790748    -0.39234097
Ti     -0.05784500     2.90800399     1.15996098     0.05740813    -0.41857729    -0.59662317
Ti      5.67378122     2.96393220     3.55503383     0.26378988    -0.13388356     0.45950104
Ti      6.07175320    -0.87464279     3.69512281    -1.79765738     0.01379269     0.34918962
Ti      1.85214424     2.78026520     3.59854781     0.05204172    -0.41623759     0.35947121
Ti      1.91430923    -1.07979380     3.76033581    -0.92487397     1.36946493    -1.45967237
O       3.59450701     4.65916502     0.71466499     0.41405472     0.43342182     0.14716203
O       3.79331202     0.87587000     0.85711998     0.14354731     0.68164110     0.86272627
O       0.06991998     4.77670502     0.70785898    -0.13008424     0.04184960    -0.17841843
O      -0.26666702     0.92556303     0.75111398     0.95972349     1.19880352     0.47682720
O       5.75021124     4.83256423     4.10804183     0.16116478    -0.10068392    -1.39584471
O       5.47753224     0.99121323     3.96725481     1.25700817    -0.53275643    -0.01370578
O       1.89227223     4.73468120     4.23527382     0.14345321    -1.11855447    -1.78574365
O       2.01228624     0.86853624     3.98160483    -0.17507548     0.23019995     0.17943093
O       3.78481121     2.93986522     3.16789183    -0.27915712     0.06693535    -0.06325687
O       0.01068721     2.98515221     3.16131283    -0.29949506    -0.56363513     0.02206444
O       5.68440800     6.62292798     1.74852700     0.03347938    -0.47052028     1.15090745
O       5.71309602     3.23703402     1.55792598    -0.75148720    -1.11840304     0.68515271
O       1.84427897     6.54318002     1.73016899     0.42113194     0.37546579     1.22353368
O       1.85626399     2.81697201     1.50821798     0.23794437    -0.36491501     0.53786650
