# total energy = -19074.58482372 eV

CRYSTAL
PRIMVEC
        7.60600008     0.00000000     0.00000000
        0.00000000     7.60600008     0.00000000
       -1.89786986    -1.89786986     4.85670466
PRIMCOORD
22 1
Ti      4.00782799     6.65699800     1.18936201     0.17972841    -0.43899263    -0.57295821
Ti      3.55921099     2.69798401     1.14033099     0.72887845     1.56576538     0.84977794
Ti      0.04230698     6.79324198     1.05622102     0.08541748    -1.14682145     0.65734339
Ti     -0.11844601     2.93105601     1.12295900    -1.39143270     0.39202242    -0.45112747
Ti      5.56204020     2.90102425     3.49812484     0.35823939    -0.63188869     0.47531668
Ti     -1.17456378    -0.86140478     3.83364581    -3.86449213     0.38657013    -1.40178422
Ti      1.81138124     2.78155222     3.67353381     0.05155707    -0.58274872     0.42896712
Ti      1.53166524    -1.00961177     3.82019883     1.95509251     0.75501424    -1.66958194
O       3.73374900     4.61348601     0.80611798     0.06959233     1.90530231    -0.14879982
O       4.08774799     0.93592098     0.89261100    -1.07465904    -1.83340087     0.39209569
O      -0.16686599     4.79046802     0.66050798     0.47473355    -0.06795300     0.38236201
O       7.22355199     0.98983599     0.62100099     1.99088511     0.00709548     0.71570900
O       5.53864824     4.83499522     4.05574679     1.44776584     0.23373959    -1.71359281
O       5.65400623     0.98612720     3.97884781     1.24425087    -1.04539319    -0.02361688
O       2.28400124     4.84541424     4.15535282    -1.14191475    -1.38513221     0.19902686
O       2.04654221     0.86113824     4.07321583    -1.22398594    -0.38837967    -0.47326339
O       3.70837722     2.67043521     3.13475083    -0.29803699     0.67401854    -0.03478627
O      -0.02143078     2.75717821     3.20256283    -0.19617087     0.77033827     0.63137807
O       5.95071502     6.59600302     1.88976398    -1.18280688     0.20140667     1.06774483
O       5.66727303     2.73539600     1.56925302    -0.39647068     1.17888003     0.80838959
O       1.87625398     6.75660397     1.86227201     0.39337044    -0.32232184     0.15515636
O       1.69748700     2.81564599     1.61454498     1.79045854    -0.22712080    -0.27375651
