# total energy = -19901.24918344 eV

CRYSTAL
PRIMVEC
        8.18415898     0.00000000     0.00000000
        0.00003088     5.22625184     0.00000000
        0.00000000     0.00000000    12.49949415
PRIMCOORD
24 1
Ti      2.96638206     3.09707198     4.63722320     0.53428495    -0.59885797     2.14031639
Ti      5.21780727     2.12917979     7.86227108    -0.53428495     0.59885797    -2.14031639
Ti      7.05832074     2.12918155     1.61247400     0.53287187     0.59905955    -2.14117591
Ti      1.12586865     3.09707042    10.88702035    -0.53287187    -0.59905955     2.14117591
Ti      2.96636689     0.48394613     1.61252414     0.53387280    -0.62901754    -2.14014798
Ti      5.21782244     4.74230578    10.88697027    -0.53387280     0.62901754     2.14014798
Ti      1.12585341     0.48394423     7.86222094    -0.53250292    -0.62929804    -2.14159089
Ti      7.05833592     4.74230767     4.63727327     0.53250292     0.62929804     2.14159089
O       2.59034872     1.84025206     6.37839621     0.68986837     1.49500705    -1.96664011
O       5.59384068     3.38599964     6.12109807    -0.68986837    -1.49500705     1.96664011
O       1.50180009     1.84027317     0.12868930    -0.68982749     1.49491527    -1.96665271
O       6.68238937     3.38597860    12.37080458     0.68982749    -1.49491527     1.96665271
O       5.59382551     0.77287366     0.12864874    -0.68961743    -1.49576836    -1.96631795
O       2.59036389     4.45337805    12.37084514     0.68961743     1.49576836     1.96631795
O       6.68237413     0.77285262     6.37843671     0.68937138    -1.49543026    -1.96610429
O       1.50181513     4.45339915     6.12105750    -0.68937138     1.49543026     1.96610429
O       0.29736810     3.17890263     3.37642521    -2.17912515     0.70181038     0.19319148
O       7.88682130     2.04734907     9.12306901     2.17912515    -0.70181038    -0.19319148
O       4.38945701     2.04730048     2.87336163    -2.17923777    -0.70195770    -0.19444618
O       3.79473232     3.17895129     9.62613238     2.17923777     0.70195770     0.19444618
O       0.29735286     0.56577665     2.87332173    -2.17976587     0.70161112    -0.19412325
O       7.88683647     4.66047506     9.62617228     2.17976587    -0.70161112     0.19412325
O       3.79471715     0.56582530     9.12310884     2.18000138     0.70144477    -0.19421349
O       4.38947218     4.66042640     3.37638531    -2.18000138    -0.70144477     0.19421349
