# total energy = -19516.49776659 eV

CRYSTAL
PRIMVEC
        5.17600016     0.00000000     0.00000000
        0.00000000     5.50899976     0.00000000
        0.00000000     0.00000000     9.26300011
PRIMCOORD
23 1
Ti      1.75957601     3.30829398     3.48960799     0.15795115    -1.71574766     2.67625739
Ti      3.41230800     2.30563401     5.82879300    -0.34608553    -0.04310302    -2.93699306
Ti      4.39448902     2.01268302     1.60010601     0.13046965    -1.39264214    -1.39120464
Ti      1.11871902     3.27111700     7.87218301    -3.77634876    -0.18477934     1.46983826
Ti      2.03198598     0.31113199     1.25841102    -1.99814513     0.52449341    -0.77226223
Ti      3.32919098     5.37998201     7.78832900     0.60271771    -1.37934774     1.54450852
Ti      0.60764000     0.43988298     5.93177201     0.08753041     1.66562295    -2.82804303
Ti      4.40561302     4.88424903     3.30532101    -0.38946828     1.12774206     3.44278709
O       1.45903899     2.17388999     4.91746299     0.69068855     0.04702421    -0.99448147
O       3.35104901     3.66185402     4.56704298     0.82126002     0.94127042    -0.47001763
O       0.25311299     2.46750298     0.15795100     0.97503879     0.57166700    -0.46146974
O       3.41177099     0.86673201     0.19380498     1.29636072     0.64442436    -1.28252613
O       1.80543498     4.84995601     8.82198802    -0.88802465    -0.38148989     0.96668552
O       4.32977901     0.87429898     4.57084798    -1.46256975     0.23541698     0.80827749
O       0.86051201     4.84896899     4.41871899     1.28419889    -1.14275782     0.08809245
O       0.01628702     3.24810203     2.71675901    -0.04169945    -0.17824539    -0.49051062
O       4.92082502     2.01510501     6.77377202     1.50657702    -0.36199115     1.54118614
O       2.47871402     1.83331299     2.26330697     0.56124066     1.33419452     0.36477257
O       2.77143202     3.40292902     7.27978602     1.79632812     0.93948144    -0.57316930
O       0.12081302     0.37598102     2.05926998     0.97296339     1.30725732    -1.79323045
O       5.13471200     4.68516302     7.17577797    -0.77162845     0.27469831     0.25597296
O       2.41679600     0.99596403     6.72566399    -1.59744910    -1.66639428     0.42538943
O       2.78337798     4.56302002     2.23553998     0.38809428    -1.16679456     0.41014021
