# total energy = -19520.01058218 eV

CRYSTAL
PRIMVEC
        5.17575250     0.00001323     0.00000000
        0.00001429     5.50856584     0.00000000
        0.00000000     0.00000000     9.26345890
PRIMCOORD
23 1
Ti      1.84421541     3.36895787     3.40785100    -0.01694152    -0.03120343     0.01282364
Ti      3.37191889     2.16873050     5.77030967    -0.00947889     0.01820213     0.00631052
Ti      4.57680097     1.94675489     1.42553539     0.00097651    -0.01951725    -0.00103898
Ti      0.84821128     3.31382407     7.94111577    -0.01531350    -0.00142928    -0.02276764
Ti      2.02522679     0.48531759     1.25412915     0.04717282     0.01881354    -0.01088348
Ti      3.16104449     5.16887639     7.91234004     0.01708627    -0.01977488     0.01018800
Ti      0.61653228     0.70223451     5.66373383    -0.01470543     0.00755262     0.01194252
Ti      4.57464068     4.83156622     3.57335560    -0.01734724    -0.00852295    -0.00898061
O       1.53107771     1.95176785     4.66445626     0.00630075    -0.01023762     0.00026560
O       3.57682261     3.51800592     4.50418858    -0.00115211     0.00753616    -0.01126015
O       0.73523257     2.11732661     0.09367086    -0.03010454     0.01735444     0.01186359
O       3.54419828     0.85010835     0.09016982    -0.01884799     0.00627427     0.00501365
O       1.68861233     4.71018340     9.13913438     0.01380220     0.01804915     0.00968535
O       4.06331570     0.77039062     4.70261272    -0.02895757    -0.03671640    -0.01508981
O       1.03847059     4.63591059     4.62069621     0.01114959     0.00225871     0.00650129
O       0.17914666     3.37160503     2.38673116    -0.00324859    -0.00011724     0.02755684
O       4.93994137     2.15165199     6.83361791     0.00345016    -0.00684222     0.00564974
O       2.78355988     2.12176399     2.09902171     0.01552767     0.02722902    -0.01050270
O       2.48654555     3.41566331     7.13935915     0.02407402    -0.00148816     0.00277422
O       0.27305639     0.55593443     2.20840925     0.00948789     0.00816891    -0.01892076
O       4.89859203     4.77833015     7.34160253    -0.01021371     0.03347166    -0.02032201
O       2.31787816     0.74291086     6.76346580     0.00042680    -0.01467406     0.01220477
O       2.80814725     4.85624004     2.45791621     0.01685693    -0.01438738    -0.00301333
