# total energy = -4934.32874991 eV

CRYSTAL
PRIMVEC
        5.95573033     0.00000000     0.00000000
       -0.00000773     2.25906981     0.00000000
       -2.97790087    -1.12964213     6.57298553
PRIMCOORD
6 1
Ti     -0.00025448     1.69436629     1.64324610    -0.03173874    -0.02076938    58.28861642
Ti      2.97807627    -0.56493890     4.92973892     0.03173874     0.02076938   -58.28861642
O       0.00006323     0.56474947     1.07068554     0.03011149     0.02092030   -53.92151894
O       2.97775839     0.56467786     5.50229953    -0.03011149    -0.02092030    53.92151894
O      -0.00002582    -0.56481170     4.35717831    -0.00145627     0.00005425    -1.08684325
O       2.97784732     1.69423897     2.21580676     0.00145627    -0.00005425     1.08684325
