# total energy = -19961.99323343 eV

CRYSTAL
PRIMVEC
        7.60600008     0.00000000     0.00000000
        0.00000000     7.60600008     0.00000000
       -1.89786986    -1.89786986     4.85670466
PRIMCOORD
24 1
Ti      3.80822302     6.56198798     1.20860798    -0.77269392     0.71249872     0.57991510
Ti      3.80109601     2.85499397     1.22173200    -0.20644912    -0.28977218    -0.20418912
Ti     -0.00782902     6.69316901     1.21765902     0.79543765     0.36208988    -0.24864762
Ti     -0.02411799     2.90850999     1.20691202     0.25394718    -0.74128608     0.23781196
Ti      5.70306721     2.86556524     3.66216079     0.58904587     0.00607886    -0.31394287
Ti      5.74031023    -0.95253080     3.62169280    -0.48109909     0.03837090     0.28313924
Ti      1.91545723     2.85014221     3.64146181    -0.50571484    -0.35135295    -0.56999476
Ti      1.90138022    -1.00117478     3.69598881     0.29598885     0.36232025    -1.01060487
O       3.67048300     4.73969701     0.72686300     0.49846613    -0.06783550     0.96821096
O       3.71922599     0.87814102     0.71682001     0.31268740     0.66051639     1.26896149
O       0.02971198     4.78589402     0.77480900    -0.12523257    -0.15848671    -0.23735096
O      -0.02601203     0.98984901     0.80946799     0.17084987    -0.54079653    -0.56397503
O       5.76675623     4.75829023     3.94150182     0.08323718     0.14940480     0.93249421
O       5.72633021     0.92785622     4.00176579    -0.24513704     0.43563528     0.49994965
O       1.83923422     4.70945622     4.06238183     0.08905919     0.04769835    -0.23577745
O       1.82258223     0.93194422     4.15937483     0.59365920    -0.05925829    -0.86334257
O       3.83420123     2.98053424     3.23517179    -0.26706855    -0.73200414     0.10441254
O       3.81534723    -1.01647975     3.22820179    -0.29489407     0.07200017    -0.13404297
O      -0.01814575     2.68793520     3.19734181     0.26893466     0.61498985    -0.27484872
O       0.01533423    -0.98380877     3.15617081    -0.20446011     0.11092797     0.27531743
O       5.69892899     6.64988400     1.59290798    -0.10463854    -0.03569747     0.01682428
O       5.72741000     2.92525702     1.58664998    -0.70577116    -0.05618325     0.03169297
O       1.89393898     6.68683799     1.62955700     0.16134115    -0.10112384    -0.01666255
O       1.92434799     2.95869901     1.70189299    -0.19949480    -0.43873423    -0.52535113
