# total energy = -19953.43599740 eV

CRYSTAL
PRIMVEC
        5.86283360     0.00000000     0.00000000
        0.00002477     4.61204675     0.00000000
        0.00000000     0.00000000     9.33453426
PRIMCOORD
24 1
Ti      2.12500989     2.73309467     3.46304563    -0.10671959     1.11740133    -1.95090392
Ti      3.73784853     1.87895224     5.87148868     0.10671959    -1.11740133     1.95090392
Ti      5.05632543     1.87895384     1.20418423    -0.10471927    -1.11738231     1.95198096
Ti      0.80653299     2.73309327     8.13035019     0.10471927     1.11738231    -1.95198096
Ti      2.12499761     0.42707140     1.20422165    -0.10671959     1.11740133     1.95090392
Ti      3.73786081     4.18497566     8.13031276     0.10671959    -1.11740133    -1.95090392
Ti      0.80652071     0.42706964     5.87145125     0.10471927     1.11738231     1.95198096
Ti      5.05633771     4.18497742     3.46308306    -0.10471927    -1.11738231    -1.95198096
O       1.85563260     1.62398009     4.76334138     0.90487361    -0.92011949     1.28590353
O       4.00722587     2.98806681     4.57119293    -0.90487361     0.92011949    -1.28590353
O       1.07583597     1.62399870     0.09610428    -0.90451983    -0.92054938     1.28605239
O       4.78702255     2.98804826     9.23842977     0.90451983     0.92054938    -1.28605239
O       4.00721359     0.68204338     0.09607400    -0.90487361     0.92011949     1.28590353
O       1.85564488     3.93000352     9.23846005     0.90487361    -0.92011949    -1.28590353
O       4.78701027     0.68202483     4.76337167     0.90451983     0.92054938     1.28605239
O       1.07584815     3.93002212     4.57116264    -0.90451983    -0.92054938    -1.28605239
O       0.21302538     2.80530827     2.52149058     0.55227136    -0.32529018     0.66861742
O       5.64983309     1.80673863     6.81304373    -0.55227136     0.32529018    -0.66861742
O       3.14444850     1.80669562     2.14580626     0.55240738     0.32540691    -0.66869456
O       2.71840997     2.80535134     7.18872789    -0.55240738    -0.32540691     0.66869456
O       0.21301310     0.49928489     2.14577644     0.55227136    -0.32529018    -0.66861742
O       5.64984537     4.11276206     7.18875771    -0.55227136     0.32529018     0.66861742
O       2.71839769     0.49932791     6.81307349    -0.55240738    -0.32540691    -0.66869456
O       3.14446078     4.11271899     2.52146077     0.55240738     0.32540691     0.66869456
