# total energy = -19519.80072408 eV

CRYSTAL
PRIMVEC
        5.17575250     0.00001323     0.00000000
        0.00001429     5.50856584     0.00000000
        0.00000000     0.00000000     9.26345890
PRIMCOORD
23 1
Ti      1.88600115     3.27136493     3.43212799    -0.18443198     0.10870757    -0.11786790
Ti      3.30031793     2.24157650     5.81375209     0.04591889    -0.14116133    -0.22737996
Ti      4.51549648     2.10474071     1.29820268    -0.06318308    -0.00371730     0.05464213
Ti      0.76719444     3.25028486     7.99019322     0.14575589     0.09429293     0.03400517
Ti      1.86823610     0.54807800     1.17563963     0.11013196     0.04521235    -0.20424208
Ti      3.22972019     5.05514747     8.01520046     0.13241340     0.12000757     0.01796739
Ti      0.69253194     0.50655278     5.81625745    -0.16677827     0.02421003    -0.12877092
Ti      4.44525090     4.97279262     3.44752167    -0.17263704    -0.33853574     0.00514349
O       1.62782438     1.93733294     4.72956246     0.01666538     0.06175792    -0.02658213
O       3.53160982     3.57791280     4.52593550     0.01373638     0.06091023    -0.01643707
O       0.88543957     1.99327502     0.07906989     0.08171972    -0.19031133     0.04535093
O       3.56228965     0.82069699     0.09344838    -0.10284751     0.08992771     0.04583045
O       1.66167159     4.66896107     9.19757117     0.03671048     0.00852964    -0.02465637
O       4.23473853     0.82016613     4.73586764    -0.00818511     0.02555575     0.03674596
O       0.94909545     4.69186374     4.54544826     0.00070268    -0.09657916     0.07789237
O       0.16964347     3.38474456     2.46279561     0.06833403     0.09753046     0.09299041
O       4.98738773     2.14372568     6.77264366     0.02564548    -0.09066973     0.01697571
O       2.74894598     2.18256178     2.11040438     0.02822789    -0.03093193    -0.05662240
O       2.48547680     3.36141362     7.15627716    -0.04634364    -0.04099446     0.07562286
O       0.17801553     0.60867255     2.13615282     0.09845683    -0.13836731     0.27615895
O       4.96758401     4.86123913     7.22258285     0.06158360     0.07347419     0.01791854
O       2.40353895     0.61379204     6.74398448    -0.12921109     0.12511481     0.02184641
O       2.78517729     4.91715926     2.49278353     0.00761510     0.13603712    -0.01653220
