# total energy = -19960.92748726 eV

CRYSTAL
PRIMVEC
        7.60600008     0.00000000     0.00000000
        0.00000000     7.60600008     0.00000000
       -1.89786986    -1.89786986     4.85670466
PRIMCOORD
24 1
Ti      3.83243198     6.62415101     1.18430800    -0.06938253    -0.77255559     0.59196176
Ti      3.82995601     2.72797699     1.18211398    -1.00013636     0.64630718     0.58256874
Ti     -0.04639001     6.71854697     1.15297600    -0.01465761    -0.56474739     0.22737045
Ti     -0.01046300     2.86920302     1.19688601     0.61386242     0.43970688     1.43993143
Ti      5.66790825     2.84942322     3.61901284    -0.81172354     1.63191912     0.16378293
Ti      5.73036222    -0.79996476     3.65390483    -0.76779314    -1.35192768    -0.36498494
Ti      1.89914222     2.73714525     3.68457382     0.61594039     0.62020045    -0.57999687
Ti      1.92167120    -0.98235475     3.64309882     0.58231240    -0.60233256    -1.15946280
O       3.89958299     4.59812199     0.79105501    -0.66959239     0.92675962    -0.10333087
O       3.92313899     0.83443802     0.74004798    -0.47965644     0.55979159     0.27192511
O      -0.04656601     4.80742799     0.91686901     0.50337333    -0.02100592    -0.67212467
O      -0.07660597     0.96812602     0.78312999     0.45880916     0.89438325    -0.24686045
O       5.43914424     4.85070723     4.01871179     1.40156182    -0.80867009     0.47652072
O       5.49449120     1.07501723     4.18498881     0.54869727    -0.92873911    -1.16616412
O       2.07822723     4.63601923     4.05986183    -1.05306922     0.63611121    -0.06292417
O       2.02576624     0.83056825     4.03992582    -0.49858620     0.94551094     0.59117577
O       3.78528721     2.84845620     3.29543180     0.19068928    -0.45606193    -0.70068809
O       3.82556723    -0.82409980     3.15984484    -0.12107098    -0.31035772     0.43254893
O      -0.00065978     2.78207224     3.12501280    -0.63915334     0.16572771     1.46058871
O      -0.04150178    -0.65560278     3.14517583     0.38478861    -0.69568138     1.19735110
O       5.70467898     6.66103398     1.70847600    -0.02039734    -0.08588748    -0.79643627
O       5.60764502     2.74763698     1.65073499     1.61072628     0.07276405     0.53331873
O       1.93943002     6.78467000     1.73437098    -0.51490114    -0.78642336    -1.63007512
O       1.92085002     2.77469799     1.64397798    -0.25064100    -0.15479178    -0.48599601
