# total energy = -19518.15332861 eV

CRYSTAL
PRIMVEC
        5.93400000     0.00000000     0.00000000
        0.00000000     9.29699974     0.00000000
        0.00000000     0.00000000     4.64899994
PRIMCOORD
23 1
Ti      4.55752203     7.15450097     2.20245900     0.27610676    -0.66422212     0.70158952
Ti      4.48987899     2.30604899     2.35566798    -0.14255410    -0.91533569    -0.15543944
Ti      1.38562899     7.04429198     2.14605198    -0.68561808     0.10291333     0.42865628
Ti      1.47615603     2.28362098     2.37276401     0.16401793    -0.43211853     0.26468308
Ti      3.00368500     4.47411898     0.19521597    -0.90837983    -0.29826633     0.38297033
Ti      2.95167799     9.26337302     4.62750900    -0.05859701     0.65034639    -0.32478521
Ti      5.90814001     4.60026600     0.04769300     0.65950877     0.66406297    -0.68813828
Ti      0.00222101     0.05371498     4.59650101     0.08002973     0.82241007    -0.50538574
O       4.38180099     5.51290800     1.01234000    -0.07615688     0.58776597    -0.14954467
O       4.42679598     0.91774501     0.81232698    -0.01160622     0.60290052     1.11999224
O       1.44268202     5.57548099     0.89659898     0.87274407     0.50613239     0.57940551
O       1.45008500     0.92571702     0.81902499     0.65462908     0.36035618     1.02622021
O       4.47612800     8.44725401     3.60299501    -0.51580822    -0.51255320     0.30324605
O       4.45545802     3.62168698     3.95804601    -0.55619461     0.11314915    -1.44819625
O       1.48824000     8.45241401     3.73371899    -0.04105616    -1.39166281    -1.18773157
O       1.47836799     3.68823901     3.84932099     0.44577829     0.39531831    -0.59152261
O       2.96909898     1.34365200     3.19546699     0.31322887     0.39441380    -0.25529521
O       5.89005998     6.09164699     3.27087501     0.04206455     0.16335201    -0.59947812
O       0.01243302     1.46748202     3.29824400    -0.24833472     0.12713904    -0.86877197
O       2.94800799     7.87770799     1.40697197    -0.09514859    -0.71352510     0.42938313
O       2.97137497     3.24661001     1.54037899     0.03395220     0.20943468     0.05197847
O       5.90247400     7.99528001     1.29233498     0.53842803    -1.16874988     0.88923641
O       0.08267500     3.17158199     1.40317799    -0.74103360     0.39673936     0.59692784
