# total energy = -19076.48128538 eV

CRYSTAL
PRIMVEC
        7.60600008     0.00000000     0.00000000
        0.00000000     7.60600008     0.00000000
       -1.89786986    -1.89786986     4.85670466
PRIMCOORD
22 1
Ti      3.93484201     6.66680201     1.16190200     0.49328741    -0.43165753    -0.08184082
Ti      3.67722001     2.77480801     1.16551998     0.48061161     0.38458421     0.08328680
Ti      0.13954700     6.72745499     1.15732202    -1.16859562     0.11529268    -0.85152243
Ti     -0.08051400     2.90494503     1.14279097    -0.48466727    -0.25746985     0.18772402
Ti      5.66040923     2.83053223     3.58207082    -0.24536689     0.28284228    -0.08337268
Ti     -1.39963779    -0.92159975     3.70599079    -0.64589786    -0.59395308     0.25006481
Ti      1.82752120     2.86790124     3.70016381     0.28337115    -1.49843614    -0.60550865
Ti      1.45579122    -1.05962177     3.75229179     0.69607116     1.20703491    -0.45017539
O       3.77773601     4.71799101     0.79488598    -0.40530628     0.78240472     0.01629489
O       4.02383899     0.90111001     0.69850497    -0.72357375    -0.16173968     1.64035260
O      -0.13973100     4.80783800     0.71154300     0.15825686    -0.39280300     0.04454824
O       7.32467797     0.95906100     0.70727000     0.87613741     0.40183683     0.67807600
O      -1.58420375     4.81269521     4.06442281    -0.20088833    -0.31656154    -0.74981546
O       5.72500325     0.91735321     3.95573880     0.26740974     1.00746246     0.60612571
O       2.16449720     4.72184220     4.08261582    -0.77914019     0.32894140     0.00148173
O       1.74894923     0.86488624     4.02377480    -0.50751744    -0.09175396     0.23225658
O       3.68414720     2.64243824     3.19283481     0.37109980     0.40300360     0.03408256
O      -0.04601477     2.87929522     3.22424582    -0.11000058    -0.07122884    -0.52145180
O       5.78351199     6.72424500     1.86701798    -0.47147827    -0.58631458    -0.28326728
O       5.54082702     3.02342802     1.59204299     1.31146853    -0.48073014     0.60851272
O       1.90364398     6.67686702     1.91971499     0.86306797    -0.06648695    -0.71370945
O       1.78585299     2.83764299     1.58118803    -0.05834941     0.03573166    -0.04214271
