# total energy = -19924.42284632 eV

CRYSTAL
PRIMVEC
        7.56953792     0.00000000     0.00000000
        0.00002664     4.33799560     0.00000000
        0.00000000     0.00000000    11.45207820
PRIMCOORD
24 1
Ti      2.74360930     2.57069231     4.24863949     0.32929133    -0.02799907     2.04758155
Ti      4.82595543     1.76730364     7.20343919    -0.32929133     0.02799907    -2.04758155
Ti      6.52824854     1.76730518     1.47735413     0.32914606     0.02854363    -2.04771165
Ti      1.04131619     2.57069089     9.97472466    -0.32914606    -0.02854363     2.04771165
Ti      2.74359611     0.40169457     1.47740003     0.32929133    -0.02799907    -2.04758155
Ti      4.82596863     3.93630150     9.97467876    -0.32929133     0.02799907     2.04758155
Ti      1.04130299     0.40169286     7.20339329    -0.32914606    -0.02854363    -2.04771165
Ti      6.52826174     3.93630315     4.24868539     0.32914606     0.02854363     2.04771165
O       2.39581600     1.52748206     5.84390803     1.38236775     0.91174309    -1.35100568
O       5.17374874     2.81051383     5.60817064    -1.38236775    -0.91174309     1.35100568
O       1.38901610     1.52749954     0.11790555    -1.38185071     0.91181276    -1.35250129
O       6.18054869     2.81049641    11.33417277     1.38185071    -0.91181276     1.35250129
O       5.17373554     0.64151603     0.11786840    -1.38236775    -0.91174309    -1.35100568
O       2.39582920     3.69647992    11.33420992     1.38236775     0.91174309     1.35100568
O       6.18053549     0.64149855     5.84394518     1.38185071    -0.91181276    -1.35250129
O       1.38902912     3.69649740     5.60813343    -1.38185071     0.91181276     1.35250129
O       0.27503501     2.63861486     3.09349213    -1.89229586     0.66465150     0.55771439
O       7.29452972     1.69938109     8.35858654     1.89229586    -0.66465150    -0.55771439
O       4.05981331     1.69934053     2.63258358    -1.89014925    -0.66458465    -0.55761515
O       3.50975142     2.63865542     8.81949485     1.89014925     0.66458465     0.55761515
O       0.27502181     0.46961700     2.63254703    -1.89229586     0.66465150    -0.55771439
O       7.29454292     3.86837895     8.81953141     1.89229586    -0.66465150     0.55771439
O       3.50973822     0.46965757     8.35862304     1.89014925     0.66458465    -0.55761515
O       4.05982651     3.86833839     3.09345558    -1.89014925    -0.66458465     0.55761515
