# total energy = -19933.05228126 eV

CRYSTAL
PRIMVEC
        6.79576293     0.00000000     0.00000000
        0.00002391     3.89455605     0.00000000
        0.00000000     0.00000000    10.28142131
PRIMCOORD
24 1
Ti      2.46315146     2.30791043     3.81433412    -0.10682115     1.11529637    -0.06724466
Ti      4.33263554     1.58664594     6.46708763     0.10682115    -1.11529637     0.06724466
Ti      5.86091647     1.58664732     1.32633571    -0.10689468    -1.11580648     0.06831244
Ti      0.93487054     2.30790916     8.95508614     0.10689468     1.11580648    -0.06831244
Ti      2.46313961     0.36063246     1.32637691    -0.10682115     1.11529637     0.06724466
Ti      4.33264739     3.53392401     8.95504493     0.10682115    -1.11529637    -0.06724466
Ti      0.93485869     0.36063092     6.46704642     0.10689468     1.11580648     0.06831244
Ti      5.86092832     3.53392550     3.81437532    -0.10689468    -1.11580648    -0.06831244
O       2.15091036     1.37133945     5.24653077     2.58809860    -0.60131286     1.16636621
O       4.64487664     2.52321686     5.03489097    -2.58809860     0.60131286    -1.16636621
O       1.24702779     1.37135515     0.10585298    -2.58807880    -0.60172758     1.16635001
O       5.54875927     2.52320122    10.17556844     2.58807880     0.60172758    -1.16635001
O       4.64486479     0.57593884     0.10581963    -2.58809860     0.60131286     1.16636621
O       2.15092221     3.31861753    10.17560179     2.58809860    -0.60131286    -1.16636621
O       5.54874742     0.57592315     5.24656412     2.58807880     0.60172758     1.16635001
O       1.24703948     3.31863322     5.03485757    -2.58807880    -0.60172758    -1.16635001
O       0.24692032     2.36888979     2.77726849    -0.00112280     0.16536365     1.24675281
O       6.54886669     1.52566658     7.50415325     0.00112280    -0.16536365    -1.24675281
O       3.64481017     1.52563016     2.36347504    -0.00271226    -0.16500961    -1.24774011
O       3.15097683     2.36892620     7.91794649     0.00271226     0.16500961     1.24774011
O       0.24690847     0.42161171     2.36344222    -0.00112280     0.16536365    -1.24675281
O       6.54887854     3.47294466     7.91797931     0.00112280    -0.16536365     1.24675281
O       3.15096498     0.42164813     7.50418601     0.00271226     0.16500961    -1.24774011
O       3.64482202     3.47290824     2.77723567    -0.00271226    -0.16500961     1.24774011
