# total energy = -19074.35468035 eV

CRYSTAL
PRIMVEC
        7.60600008     0.00000000     0.00000000
        0.00000000     7.60600008     0.00000000
       -1.89786986    -1.89786986     4.85670466
PRIMCOORD
22 1
Ti      3.86134998     6.61008098     1.10658102    -1.90659017     0.20622620    -1.08815194
Ti      3.67199798     2.89853298     1.32373297     0.36222152     0.48967064     0.15056848
Ti     -0.01106801     6.73613302     1.20641401     0.88334241     0.03808474     0.38117904
Ti     -0.23853199     2.91153201     1.35892802     0.21533691     0.40002678    -0.73928319
Ti      5.53350125     3.06381520     3.70976679     0.18311738    -0.86779443     0.18382932
Ti      5.79229523    -1.01231476     3.54456083     1.68985509     0.01046954     1.14260587
Ti      1.74773625     2.72717825     3.60882882    -0.47812124     1.47925673     0.55921103
Ti      1.83084724    -0.82957477     3.73978082     0.64253897    -1.05267225    -1.57148737
O       3.58584999     4.64975900     0.78790799    -0.30920150     1.08398289    -0.30875772
O       3.98956402     0.98228998     0.68970301    -0.13846064     0.85180808     2.84643671
O       0.03028100     4.80908199     0.81307000    -0.69420402     0.38811974    -0.33612301
O      -0.12329200     1.06524301     0.64980500    -0.49297348     0.08198660    -0.14942614
O       6.11729822     4.80339021     3.80687081    -0.53244687     1.14778793     2.21390602
O       0.12260820    -0.55257980     3.14396783    -2.85333961    -0.20443697    -0.23495726
O       1.86099722     4.78749320     4.11235981    -0.28981486    -0.51296998    -0.98999798
O       2.10617721     0.98976323     4.08315383    -0.19952205    -0.51537756     0.19380906
O       3.63934325     2.85352122     3.39585181     0.86164307    -0.04794312    -0.95470778
O      -0.17202076     2.45123724     3.13510279    -1.01171970    -0.38503801     1.79122062
O       5.54061498     6.43825798     1.66372100     2.36447708     0.33854988    -0.23954103
O       5.51195998     3.41908301     1.88276101    -0.12053670    -1.57440069    -2.28908176
O       2.17343601     6.69752499     1.85623801    -0.61067399    -0.02034258    -0.53993006
O       1.59792500     3.15269999     1.70553500     2.43507240    -1.33499439    -0.02132088
