# total energy = -19959.56494109 eV

CRYSTAL
PRIMVEC
        5.11243659     0.00000000     0.00000000
        0.81163910     5.38030346     0.00000000
        0.00000000     0.00000000     9.17612277
PRIMCOORD
24 1
Ti      2.33398893     3.18836279     3.40427613     0.89393536    -0.84747860     0.52862312
Ti      3.59008670     2.19194051     5.77184685    -0.89393536     0.84747860    -0.52862312
Ti      4.73980910     2.19194233     1.18374866    -1.35991353    -0.50665843     0.77455463
Ti      1.18426654     3.18836119     7.99237442     1.35991353     0.50665843    -0.77455463
Ti      1.92816949     0.49821116     1.18378546     0.89393536    -0.84747860    -0.52862312
Ti      3.99590615     4.88209230     7.99233762    -0.89393536     0.84747860     0.52862312
Ti      0.77844708     0.49820919     5.77181005     1.35991353     0.50665843     0.77455463
Ti      5.14562856     4.88209428     3.40431293    -1.35991353    -0.50665843    -0.77455463
O       1.90391036     1.89449625     4.68250526    -0.05796657     0.26824663    -0.46049709
O       4.02016526     3.48580706     4.49361767     0.05796657    -0.26824663     0.46049709
O       1.22392492     1.89451800     0.09447332     0.41246012    -0.54555667     0.27129494
O       4.70015077     3.48578536     9.08164940    -0.41246012     0.54555667    -0.27129494
O       3.61434582     0.79565527     0.09444356     0.05796657    -0.26824663    -0.46049709
O       2.30972981     4.58464804     9.08167916    -0.05796657     0.26824663     0.46049709
O       4.29433132     0.79563357     4.68253507    -0.41246012     0.54555667     0.27129494
O       1.62974426     4.58466979     4.49358791     0.41246012    -0.54555667    -0.27129494
O       0.67943154     3.27260555     2.47869973    -0.29696407    -0.08269416    -0.34431249
O       5.24464408     2.10769771     6.69742325     0.29696407     0.08269416     0.34431249
O       3.05992166     2.10764767     2.10939095     0.54772719    -0.32532206    -0.50607222
O       2.86415396     3.27265559     7.06673187    -0.54772719     0.32532206     0.50607222
O       0.27361209     0.58245376     2.10936160    -0.29696407    -0.08269416     0.34431249
O       5.65046353     4.79784950     7.06676117     0.29696407     0.08269416    -0.34431249
O       2.45833451     0.58250380     6.69745249    -0.54772719     0.32532206    -0.50607222
O       3.46574111     4.79779946     2.47867044     0.54772719    -0.32532206     0.50607222
