# total energy = -19923.14572856 eV

CRYSTAL
PRIMVEC
        7.35992019     0.00000000     0.00000000
        0.00002897     5.22212041     0.00000000
        0.00000000     0.00000000    11.43458232
PRIMCOORD
24 1
Ti      2.66763436     3.09462370     4.24214848     0.55765834    -0.47944330     1.33405697
Ti      4.69231492     2.12749671     7.19243396    -0.55765834     0.47944330    -1.33405697
Ti      6.34746758     2.12749853     1.47509703     0.55603649     0.47947698    -1.33446371
Ti      1.01248170     3.09462213     9.95948548    -0.55603649    -0.47947698     1.33446371
Ti      2.66761988     0.48356362     1.47514287     0.55843122    -0.49741814    -1.33424877
Ti      4.69232940     4.73855698     9.95943964    -0.55843122     0.49741814     1.33424877
Ti      1.01246722     0.48356167     7.19238806    -0.55705259    -0.49719677    -1.33553844
Ti      6.34748206     4.73855893     4.24219432     0.55705259     0.49719677     1.33553844
O       2.32947147     1.83879740     5.83497985     0.82108647     1.31400132    -1.37303182
O       5.03047781     3.38332308     5.59960259    -0.82108647    -1.31400132     1.37303182
O       1.35055221     1.83881844     0.11772544    -0.82156778     1.31462867    -1.37370313
O       6.00939720     3.38330203    11.31685663     0.82156778    -1.31462867     1.37370313
O       5.03046339     0.77226281     0.11768832    -0.82083810    -1.31487781    -1.37388954
O       2.32948589     4.44985760    11.31689375     0.82083810     1.31487781     1.37388954
O       6.00938271     0.77224183     5.83501691     0.82070620    -1.31407691    -1.37351313
O       1.35056650     4.44987871     5.59956547    -0.82070620     1.31407691     1.37351313
O       0.26742069     3.17638966     3.08876597    -1.82529417     0.52298057     0.27584759
O       7.09252859     2.04573082     8.34581647     1.82529417    -0.52298057    -0.27584759
O       3.94738901     2.04568212     2.62856162    -1.82532914    -0.52247098    -0.27621989
O       3.41256027     3.17643835     8.80602064     1.82532914     0.52247098     0.27621989
O       0.26740620     0.56532939     2.62852506    -1.82588039     0.52298392    -0.27640475
O       7.09254307     4.65679102     8.80605713     1.82588039    -0.52298392     0.27640475
O       3.41254585     0.56537809     8.34585290     1.82560296     0.52229486    -0.27570952
O       3.94740343     4.65674239     3.08872948    -1.82560296    -0.52229486     0.27570952
