# total energy = -4966.23647800 eV

CRYSTAL
PRIMVEC
        4.49246882     0.00000000     0.00000000
       -0.00000680     2.69548129     0.00000000
       -2.24625971    -1.34778982     4.89249232
PRIMCOORD
6 1
Ti     -0.00019257     2.02170678     1.22312276    -0.01487692    -0.02040788    26.62356739
Ti      2.24639472    -0.67401541     3.66936897     0.01487692     0.02040788   -26.62356739
O       0.00004758     0.67386167     0.79694692     0.01345382     0.01604960   -16.53153894
O       2.24615448     0.67382966     4.09554485    -0.01345382    -0.01604960    16.53153894
O      -0.00001851    -0.67387064     3.24319308    -0.00175581    -0.00005451    -0.42163639
O       2.24622051     2.02156191     1.64929864     0.00175581     0.00005451     0.42163639
