# total energy = -39035.02914789 eV

CRYSTAL
PRIMVEC
        7.60600008     0.00000000     0.00000000
        0.00000000     7.60600008     0.00000000
       -3.79573973    -3.79573973     9.71340985
PRIMCOORD
46 1
Ti      1.92753247     4.80967144     6.15505263    -0.32353386    -1.15441032     1.06861823
Ti      3.67260299     6.99117401     1.23367902    -0.26512120    -2.64579289    -0.10817046
Ti      2.03759044     0.61951945     6.07228762     0.10701552     1.12318683     0.35242510
Ti      3.63797702     2.71413101     1.21260200     1.87220063     2.54731215    -0.58858204
Ti     -1.89861754     4.68349844     6.06131963     0.45020496     0.48998380     0.18999611
Ti     -0.15685697     6.70068200     1.24679499     0.48014392     0.14219594     0.50716700
Ti     -1.82540253     0.96608842     6.05784462     0.38175240    -0.46984022     0.07548247
Ti      0.00426803     2.83827002     1.15084299    -0.78190439     0.94252974    -0.43043471
Ti      3.93502643     1.13214245     8.48757763    -0.25434185    -2.88643461    -0.46526751
Ti      5.69272000     2.84475699     3.48012402     0.07885936     0.05453466     0.29364374
Ti      3.84167845    -2.79041953     8.48996364     1.17335576     1.65948084     0.74428348
Ti      5.61261701    -0.89106898     3.70277001     0.45000364    -0.52514647     0.69332985
Ti      0.13895443     0.95534544     8.38656362    -0.02033486     0.75405264    -1.95881727
Ti      1.88804299     2.68574901     3.60944701    -0.34831185    -0.91630705    -0.18997991
Ti      0.08056443    -2.73094456     8.49348664    -0.96286641     0.19787423    -1.11668554
Ti      1.83734601    -1.26063197     3.65486603    -0.12449260     1.58647717     0.44169126
O       1.62970945    -1.09516656     5.76389460    -0.21939951    -0.68801538    -1.73731279
O       3.40788900     1.04300302     0.66254098     0.32512923    -0.38987940    -0.59282976
O      -1.94826855     2.84407345     5.80236261    -0.49659848     0.10504374    -0.98914900
O      -0.21624701     4.74957199     0.82298598     0.38004595     2.68337060    -0.01117659
O      -1.63201053    -0.99957958     5.69521962    -0.56973713    -0.05128041    -1.62972468
O       0.07816202     1.06836902     0.88140800    -0.45930847    -1.91905771    -1.37468812
O       3.72432747     2.92707744     8.85074965    -0.14668817     0.47174824     0.67247125
O       5.84365003     4.68854499     3.95471098    -0.76148082     0.67991871     0.53891936
O       3.97831943    -0.77183857     8.93155364     0.08460218    -1.50865550     0.33846837
O       5.66104498     0.98539302     4.05177902     0.01846361    -0.44829951     0.07688681
O       0.09390446     2.69090944     9.01882264     0.09364964     1.38465784     1.40119055
O       2.06156698     4.45303899     4.26405900    -0.56687061     0.42821096    -0.87272555
O      -0.12727856    -0.79202853     8.69524663     0.27753398    -2.23803275     1.59338187
O       1.93333802     0.83190998     4.19516102     0.14573532     1.71097594    -0.67729079
O       2.01258147     0.69254945     7.97980264    -0.19258135     1.32238107     0.96338628
O       3.77470901     2.75807400     3.11165399    -0.56299313    -0.03878691     1.11169837
O       2.00486146    -2.56915153     8.11709164    -2.28089845    -0.72349944     0.57635438
O       3.66489499    -0.98845802     3.54550901     1.59121597    -0.21968233    -1.29485765
O      -1.83040358     1.09027447     7.97608665    -0.15010389     0.48005651     0.96231079
O      -0.04392399     2.82233098     3.09456701     0.93807839    -0.13940012     1.27051958
O      -1.96379953    -2.81606457     8.10267463     1.57859313    -0.33292327    -0.25613776
O       0.06513600    -0.76839998     3.14239300    -2.41410427    -1.16233112     0.54058287
O       3.82174043     5.00411344     6.55082462    -0.20760097    -0.92383345    -1.00278126
O       5.52578802     6.97916402     1.58066800     0.78311075    -0.53276620     1.07456623
O       3.94577143     0.56114046     6.48501164    -1.01032719     1.11553034    -0.28864038
O       5.59215700     2.61982999     1.59461299     0.44295316     0.75976795    -0.64769095
O      -0.02329555     4.52261247     6.52681764     1.38855537    -0.00061192     0.48784464
O       1.83349302    -0.59165202     1.72616000     0.82535810    -2.15659688    -0.33553783
O       0.09420345     0.92082445     6.35337662     0.35453675     0.73700519     0.82880312
O       1.90418401     2.97120098     1.65215599    -1.10149828     0.69528852    -0.23554116
