# total energy = -19960.39170671 eV

CRYSTAL
PRIMVEC
        7.60600008     0.00000000     0.00000000
        0.00000000     7.60600008     0.00000000
       -1.89786986    -1.89786986     4.85670466
PRIMCOORD
24 1
Ti      3.86632398     6.77584899     1.12374901     0.59748449    -2.66080634     0.13072162
Ti      3.82635401     2.74791300     1.13409500    -1.26092679     2.00571601     1.88575497
Ti     -0.01344100     6.60878900     1.22331201    -0.81798623     0.64147556    -1.41076586
Ti     -0.14071400     2.84050002     1.35321900     1.50524648    -0.51764219    -0.22089461
Ti      5.65678722     2.77644121     3.74338981    -0.12510838     0.60864539    -0.26494379
Ti      5.68373324    -0.91496477     3.62306480     0.39560396    -0.71679426     0.83220650
Ti      2.00786322     2.82802022     3.70622882    -0.84545797     0.11532302    -1.15987109
Ti      2.03368220    -0.93985679     3.57407183    -0.26707035    -0.42109569    -1.55195521
O       3.97314302     4.80038602     0.73287398    -0.58851802    -0.96810529     1.43670855
O       3.96877699     0.93444998     0.64858499    -0.24859157     0.37282861     0.46372665
O       7.27468501     4.65281600     0.82436100     1.01187756     2.10741192     0.14639507
O      -0.06381999     1.06082301     0.71948198     0.12620856    -2.01634084     0.86478084
O       5.42120624     4.77255024     3.98619279     0.83601173    -0.09250575     1.08375484
O       5.72091223     0.94218221     4.14445680     0.15334039     0.57622711    -0.79415441
O       2.14013822     4.68063321     3.99225081    -0.66026262     2.61233691    -0.08859665
O       1.79438724     0.88303025     4.06401381    -0.14241757    -0.06127944    -0.20737497
O       3.73445423     2.68952221     3.16728983     1.34350217    -0.39867695     0.35018284
O       3.87027022    -0.75228579     3.09221583    -1.74793248    -0.08914404     0.43961458
O      -0.10482578     2.94863824     3.27331383     0.43447083    -0.15155990     0.76386115
O      -0.11543679    -1.01204376     3.06916783     2.48278360    -0.33799863     1.69342199
O       5.75615401     6.83206502     1.63112802    -1.45987626    -0.03851000    -0.97245354
O       5.63032301     2.85526100     1.77447197    -0.88424487    -0.58815806    -1.16160016
O       1.92765498     6.74250198     1.60344601     0.02188858    -0.26935375    -0.35778328
O       1.86932102     2.75289700     1.78293400     0.13997476     0.28800608    -1.90073577
