# total energy = -18989.70285788 eV

CRYSTAL
PRIMVEC
        7.60600008     0.00000000     0.00000000
        0.00000000     7.60600008     0.00000000
       -1.89786986    -1.89786986     4.85670466
PRIMCOORD
22 1
Ti      5.88629298     5.38589202     0.71810200    -5.55682525     9.58078445     2.64969968
Ti      5.55724803     2.13719102     2.18205101    -7.41046405     6.01090666    -7.46007504
Ti     -1.23621579     4.34920622     4.02467980    -0.32030507    13.02960643    -0.65575573
Ti      0.64232101     3.76722099     1.43506102     1.46414095     2.30817401    11.82072007
Ti     -1.54389077     2.67438123     4.67484983    -6.11750207    71.63536237    24.99637525
Ti      5.37196624     1.51649722     4.34103281   -48.54176203   -52.13876369   -14.50052636
Ti     -0.38641978     1.97134322     4.14336484    51.84583677   -13.82694644   -20.07701078
Ti     -0.95933676    -0.05083679     3.85023684     6.62380878   -10.68750516    -6.15188544
O       4.04094898     5.58113202     1.39131801     3.54943186     1.44890896     0.70758636
O       5.27811401     6.70794798     2.06533600    -2.59646497    -3.78230781    -2.60977018
O       0.11446702     5.60062998     1.62877000    -2.57182017     1.41398102    -0.52732574
O      -0.59794976     5.99729722     3.75920380     2.73966827    -6.50467898    -0.09368975
O       6.19127000     3.88627899     2.20645699     3.26101851     4.95239287    14.04812799
O       6.26667501     0.78337802     2.34684501     8.99793366    -6.34028464    -2.20973029
O       1.88191898     6.10358898     0.46311598     0.43346604    -0.14621149    -2.11718134
O       2.32530803     3.90844898     0.88366102     3.85529760     2.24853391     2.02708162
O       4.28295523     1.24748721     2.68572081    -6.22601552     0.96835546     1.10797747
O       1.21263099     2.54770302     2.09777901     1.79818034    -9.25869376     7.38008620
O       4.30681123     4.29971322     4.05548681     1.00883363     0.02869429    -0.26438252
O       5.96214302     3.63866098     1.08500598    -3.94491318    -6.01862640   -15.62690290
O       0.60728720     0.55706225     4.26749379     5.13147773    -2.70718597    -0.17910388
O       7.38230898     1.66770200     0.05503697    -7.42302132    -2.21449686     7.73568584
