# total energy = -19937.48740671 eV

CRYSTAL
PRIMVEC
        6.27689403     0.00000000     0.00000000
        0.00003124     6.04427386     0.00000000
        0.00000000     0.00000000    10.72611020
PRIMCOORD
24 1
Ti      2.27509073     3.58183104     3.97931048     0.17379558    -0.74286037     0.62420109
Ti      4.00183454     2.46244270     6.74680009    -0.17379558     0.74286037    -0.62420109
Ti      5.41342836     2.46244478     1.38370196     0.17333304     0.74333782    -0.62447465
Ti      0.86349698     3.58182926     9.34240879    -0.17333304    -0.74333782     0.62447465
Ti      2.27507517     0.55969423     1.38374499     0.17379558    -0.74286037    -0.62420109
Ti      4.00185016     5.48457970     9.34236576    -0.17379558     0.74286037     0.62420109
Ti      0.86348136     0.55969203     6.74675712    -0.17333304    -0.74333782    -0.62447465
Ti      5.41344391     5.48458196     3.97935350     0.17333304     0.74333782     0.62447465
O       1.98668761     2.12829150     5.47345207     1.11717662     1.21512669    -0.33107028
O       4.29023772     3.91598224     5.25265849    -1.11717662    -1.21512669     0.33107028
O       1.15181819     2.12831595     0.11043132    -1.11744916     1.21509378    -0.33147317
O       5.12510721     3.91595785    10.61567900     1.11744916    -1.21509378     0.33147317
O       4.29022210     0.89384524     0.11039654    -1.11717662    -1.21512669    -0.33107028
O       1.98670323     5.15042850    10.61571378     1.11717662     1.21512669     0.33107028
O       5.12509159     0.89382086     5.47348691     1.11744916    -1.21509378    -0.33147317
O       1.15183362     5.15045294     5.25262372    -1.11744916     1.21509378     0.33147317
O       0.22807318     3.67647001     2.89739003    -0.11687751    -0.13064526     0.15338796
O       6.04885215     2.36780379     7.82872054     0.11687751     0.13064526    -0.15338796
O       3.36652576     2.36774753     2.46569936    -0.11800519     0.13041514    -0.15344375
O       2.91039951     3.67652627     8.26041108     0.11800519    -0.13041514     0.15344375
O       0.22805757     0.65433302     2.46566507    -0.11687751    -0.13064526    -0.15338796
O       6.04886771     5.38994078     8.26044531     0.11687751     0.13064526     0.15338796
O       2.91038395     0.65438928     7.82875476     0.11800519    -0.13041514    -0.15344375
O       3.36654138     5.38988446     2.89735580    -0.11800519     0.13041514     0.15344375
