# total energy = -4985.77390379 eV

CRYSTAL
PRIMVEC
        3.46746243     0.00000000     0.00000000
        0.00000000     3.25979604     0.00000000
        0.00000000    -0.00006420     4.63615431
PRIMCOORD
6 1
Ti      1.73373107     1.62986602     2.31807725     0.00000000     0.00000000     0.00000000
Ti      0.00000000     0.00000000     0.00000000     0.00000000     0.00000000     0.00000000
O       1.73373107     0.63527376     0.90351824    -0.00000000    -1.98749382    -1.78792446
O       1.73373107     2.62445827     3.73263631    -0.00000000     1.98749382     1.78792446
O       0.00000000     0.99456662     3.22159640     0.00000000     1.98657774    -1.78612546
O       0.00000000     2.26516542     1.41455811     0.00000000    -1.98657774     1.78612546
