# total energy = -19961.12065797 eV

CRYSTAL
PRIMVEC
        5.93400000     0.00000000     0.00000000
        0.00000000     9.29699974     0.00000000
        0.00000000     0.00000000     4.64899994
PRIMCOORD
24 1
Ti      4.49499598     6.96650102     2.23465298    -1.14794168     0.90023894     0.29875741
Ti      4.41068502     2.32213402     2.30671300     0.70676053     0.37574527     0.40221093
Ti      1.47008901     6.92940897     2.39198499     0.96250928     0.79612002    -0.09971924
Ti      1.47498702     2.28237101     2.37297700    -0.71517986     0.14456136     0.08421317
Ti      2.96804603     4.67393001     4.64689498     0.33301789    -0.07638802    -0.23512619
Ti      2.93565498     0.08148102     0.04499499     0.53572400    -1.64318981    -0.40175919
Ti      0.03703299     4.60650098     4.61351099    -0.39577083    -0.28541518     0.12358500
Ti      5.92805898     0.00726502     0.04307598    -0.66944712    -0.79074487    -1.17436517
O       4.43119699     5.49681799     0.82893801     0.34852293     0.87697713     1.08660002
O       4.43708901     0.88247302     0.93738299     0.23833158     0.27045624     0.38292431
O       1.47047700     5.57356298     0.85251497    -0.01655020    -0.16880841     0.16143886
O       1.46712001     0.85070498     0.93613800     0.13284509     0.64945601     0.48159891
O       4.47341999     8.43799901     3.70792298     0.13778367    -0.18172590     0.01489081
O       4.41813298     3.83349801     3.67292499     0.00586417    -0.95979034    -0.09495396
O       1.48594401     8.40822999     3.67348899    -0.21974610     0.11177541     0.48402423
O       1.50277401     3.77015502     3.71068602     0.07568842    -0.18106615    -0.01412153
O       3.00717302     6.15728401     3.19834799    -0.16950158    -0.79756678     0.35306402
O       2.94405800     1.46681001     3.33798601     0.47715167     0.22614532    -0.57823643
O       5.86213001     5.94861302     3.20059498     0.54807892     1.21376066    -0.74332163
O       5.91583700     1.48493301     3.29896300     0.25714666    -0.21711123    -0.02857474
O       2.93423298     7.85820400     1.35578101     0.42748720    -0.24279682     0.27626077
O       2.99764100     3.11649099     1.36989099    -0.32483921     0.70579508    -0.14929322
O       0.07158302     7.93138101     1.42323603    -0.68762843    -0.87808811     0.20716003
O       0.08931501     3.22500799     1.48481802    -0.84030702     0.15165940    -0.83725769
