# total energy = -19935.08278693 eV

CRYSTAL
PRIMVEC
        6.33123944     0.00000000     0.00000000
        0.00003151     6.09660524     0.00000000
        0.00000000     0.00000000    10.81897695
PRIMCOORD
24 1
Ti      2.29478849     3.61284256     4.01376338     0.17825593    -0.77981434     0.65168310
Ti      4.03648246     2.48376255     6.80521394    -0.17825593     0.77981434    -0.65168310
Ti      5.46029787     2.48376465     1.39568206     0.17786255     0.78002954    -0.65214282
Ti      0.87097314     3.61284077     9.42329544    -0.17786255    -0.78002954     0.65214282
Ti      2.29477279     0.56454007     1.39572547     0.17825593    -0.77981434    -0.65168310
Ti      4.03649821     5.53206523     9.42325204    -0.17825593     0.77981434     0.65168310
Ti      0.87095739     0.56453785     6.80517060    -0.17786255    -0.78002954    -0.65214282
Ti      5.46031356     5.53206752     4.01380678     0.17786255     0.78002954     0.65214282
O       2.00388837     2.14671827     5.52084127     1.13226952     1.24795352    -0.35175841
O       4.32738264     3.94988685     5.29813606    -1.13226952    -1.24795352     0.35175841
O       1.16179064     2.14674293     0.11138744    -1.13183063     1.24734391    -0.35216310
O       5.16948043     3.94986225    10.70758964     1.13183063    -1.24734391     0.35216310
O       4.32736688     0.90158416     0.11135236    -1.13226952    -1.24795352    -0.35175841
O       2.00390412     5.19502095    10.70762472     1.13226952     1.24795352     0.35175841
O       5.16946467     0.90155957     5.52087641     1.13183063    -1.24734391    -0.35216310
O       1.16180621     5.19504561     5.29810098    -1.13183063     1.24734391     0.35216310
O       0.23004784     3.70830092     2.92247566    -0.12690918    -0.12937847     0.14893018
O       6.10122316     2.38830425     7.89650167     0.12690918     0.12937847    -0.14893018
O       3.39567317     2.38824751     2.48704740    -0.12616254     0.12953942    -0.14889701
O       2.93559778     3.70835767     8.33192980     0.12616254    -0.12953942     0.14889701
O       0.23003209     0.65999824     2.48701282    -0.12690918    -0.12937847    -0.14893018
O       6.10123886     5.43660693     8.33196432     0.12690918     0.12937847     0.14893018
O       2.93558208     0.66005499     7.89653619     0.12616254    -0.12953942    -0.14889701
O       3.39568892     5.43655013     2.92244113    -0.12616254     0.12953942     0.14889701
