# total energy = -19515.61302165 eV

CRYSTAL
PRIMVEC
        5.17600016     0.00000000     0.00000000
        0.00000000     5.50899976     0.00000000
        0.00000000     0.00000000     9.26300011
PRIMCOORD
23 1
Ti      1.83493598     3.18945601     3.33821599    -0.04030051    -0.61787694     2.55153827
Ti      3.47776299     2.30081903     5.87063902    -1.08249320     0.05679286    -2.67550765
Ti      4.25921402     2.15827302     1.48125200     0.94382018    -0.95827030    -1.56026836
Ti      0.80407203     3.49652000     7.77398899     1.33420403    -0.62770345     3.16390636
Ti      1.99426998     0.07465500     1.59814001     0.02310497     0.06232228    -3.12194260
Ti      3.24422300     5.18415700     7.93415401     0.22589592     1.60931706     3.00420506
Ti      0.75309500     0.65995600     6.01772500     0.02312065     0.14331694    -3.41580412
Ti      4.37965301     4.93498501     3.26769799     1.40860484    -0.64993964     1.58343401
O       1.81991301     1.87577201     4.77007898    -0.29987199     0.23268569     0.32863596
O       3.63240499     3.67862100     4.44664801    -0.71309958    -1.04002858     1.20169035
O       5.02371401     2.94241300     0.02681198    -0.04911117     0.45349649    -1.00000549
O       3.68108602     0.56579499     0.25296900    -0.18668787     0.17538941    -0.15295550
O       1.69611400     4.83984698     8.98847999    -0.64562481    -0.90063643     0.50608585
O       4.29030403     0.86007702     4.94638200     0.34911043    -0.27369429    -1.00172196
O       0.96871801     4.68155302     4.18280003     1.13371730     0.86387401     0.92510794
O       0.20669499     3.36452499     2.49407900    -0.43007270    -1.05737917    -0.72166110
O       5.05873199     1.97631399     6.97583401    -0.04843240     0.79163884    -0.23276900
O       2.46460103     1.84949301     1.93791900    -0.59925701    -0.42890105     0.95499086
O       2.79724502     3.60332099     7.08664299    -1.95209023    -1.29552331    -0.00646118
O       0.19414201     0.53195400     1.99128097    -0.05438862     0.93692088     0.57576663
O       5.04737098     4.84226701     7.06629898    -0.33319812    -0.01031321    -0.42139137
O       2.34640997     0.95519600     7.05107598     0.38935747     0.76075166    -0.84240452
O       2.99656000     4.03878603     2.04019902     0.60369216     1.77376025     0.35753131
