# total energy = -19076.55374551 eV

CRYSTAL
PRIMVEC
        7.60600008     0.00000000     0.00000000
        0.00000000     7.60600008     0.00000000
       -1.89786986    -1.89786986     4.85670466
PRIMCOORD
22 1
Ti      3.76366302     6.52092102     1.06617198     0.36184331     0.32158213     1.39059914
Ti      3.78861902     2.83213299     1.19708699     0.00689647    -0.28645288     0.78482773
Ti      0.02635800     6.69766802     1.07978703    -0.58646448    -0.86945999     2.59401162
Ti     -0.02069797     2.91939400     1.21623099    -0.28417437     0.65812115    -0.00126087
Ti      5.74696823     2.84845525     3.59878879    -0.67189327     0.25591073     0.01645969
Ti      5.84271222    -0.90442176     3.75024583    -0.56924939     0.48432068    -1.40839196
Ti      1.92643120     2.77152722     3.56804280     0.15415466     0.32401234    -0.06833660
Ti      1.91070823    -0.96337279     3.74902883    -0.43371595    -0.32738357     0.56353563
O       3.57702903     4.63710198     0.72464300     0.32051924     1.37769272     0.04975266
O       3.72278503     0.92196600     1.00023703     0.20503321    -0.61913190    -1.10478441
O       0.06320303     4.76488299     0.71339502    -0.12742212     0.27735374     0.55750870
O      -0.12388299     1.04058102     0.81816603     0.20561094    -0.68337068     0.34231397
O       5.80872422     4.79511324     4.16447779     0.18291812     0.82728952    -2.10274099
O       5.68162225     1.04462124     3.95079782     0.18137623    -1.75133688     0.12222001
O       1.83737924     4.68102221     4.04087284     0.07682768     1.18449301     0.32189735
O       1.86683822     0.90474821     3.96181682     0.21006486    -0.38882216     0.59251917
O       3.80307222     3.02253922     3.27708379    -0.37555732    -0.52794692    -0.44476116
O      -0.03023576     2.92982122     3.15504679     0.15479975    -0.17316798     0.25900326
O       5.66815897     6.41249699     1.85180297     0.08116487     0.73275285    -0.33642615
O       5.64793901     2.98620802     1.60364001     0.13416047    -0.12320731    -0.27290419
O       1.83673698     6.61542398     1.92970602     0.16686980    -0.02298336    -1.55565092
O       1.84394998     2.93636101     1.65096200     0.60623704    -0.67026525    -0.29939196
