# total energy = -4980.92957378 eV

CRYSTAL
PRIMVEC
        2.87372891     0.00000000     0.00000000
        1.92858172     4.06877154     0.00000000
       -0.00001260    -0.00006050     4.62712885
PRIMCOORD
6 1
Ti      2.40114892     2.03435554     2.31356432     0.00000000     0.00000000     0.00000000
Ti      0.00000000     0.00000000     0.00000000     0.00000000     0.00000000     0.00000000
O       1.81271410     0.79293191     0.90175923    -7.70817656     3.33081653     4.44163018
O       2.98958368     3.27577918     3.72536941     7.70817656    -3.33081653    -4.44163018
O       0.58842954     1.24139922     3.21532452     7.70770117    -3.33057356     4.44118435
O       1.34013946     2.82731174     1.41180413    -7.70770117     3.33057356    -4.44118435
