# total energy = -19960.57480662 eV

CRYSTAL
PRIMVEC
        7.60600008     0.00000000     0.00000000
        0.00000000     7.60600008     0.00000000
       -1.89786986    -1.89786986     4.85670466
PRIMCOORD
24 1
Ti      3.81910000     6.72550200     1.17172898    -0.51396320    -0.50622083    -0.80318233
Ti      3.77347899     2.82798900     1.20110901     0.48578261     0.16459900    -0.15812316
Ti     -0.08103402     6.71388000     1.29019399     0.58966422    -0.07837060    -1.01361255
Ti     -0.05023199     2.89533199     1.31592999    -0.17650527     0.16514819    -0.63469942
Ti      5.61925421     2.96011324     3.70485581     2.12369806    -2.15465904    -0.15365844
Ti      5.61131422    -0.94969679     3.62026879     1.16687143     2.22631443     1.46583248
Ti      2.06369623     2.76370423     3.62516479    -1.55894424    -0.15989388    -0.02900000
Ti      1.93127021    -0.98286176     3.56985979    -0.17930674    -0.09238491     0.03430907
O       3.82989902     4.66914800     0.75960600    -0.17564472     0.90755784    -0.14087285
O       3.90163799     0.98618599     0.69156698    -0.54100607    -1.96319560     0.28184598
O      -0.15325201     4.75768401     0.78973402     0.25136451     1.01086378     0.83021980
O      -0.08365202     1.14864198     0.72623302    -0.22253317    -3.81035136     0.62846269
O       5.60546824     4.76696821     4.11527383    -0.00644884     0.95086141     0.01517286
O       5.68749024     0.93487924     4.05925079     0.28557870     0.27174514    -0.47846499
O       2.18274921     4.70597921     4.02058079    -0.65381918    -0.00884151     0.11872022
O       2.11000824     0.85640422     4.08414683    -0.65898247     0.61980450    -0.82302277
O       3.90562222     2.51800025     3.14228182    -2.51087934     0.79171778     0.42115302
O       3.83770020    -0.94964678     3.20561883    -1.75541105    -0.14509306    -1.10606585
O       0.00676124     2.77330822     3.21885382     1.16129599     0.41927458     1.00455686
O      -0.00635177    -1.00863978     3.18750282     0.29448655    -0.02034540     0.18314206
O       5.61903100     6.76139398     1.59081302     0.96526190    -0.24942538     0.11218936
O       5.71345300     2.93060801     1.79967102    -0.61989012     0.24193858    -1.57129274
O       1.83946298     6.60163299     1.48776401     0.97109317     0.49151515     0.81580439
O       1.89464400     2.63894699     1.57348400     1.27823701     0.92744071     1.00058579
