# total energy = -4984.40527030 eV

CRYSTAL
PRIMVEC
        3.60657792     0.00000000     0.00000000
        1.69720689     3.18227797     0.00000000
       -2.65192629    -1.59115932     4.76306131
PRIMCOORD
6 1
Ti      1.27282007     2.38683103     1.19076501     0.00055150    -0.00055150     0.00000000
Ti      1.37903832    -0.79571250     3.57229571    -0.00055150     0.00055150     0.00000000
O       0.42433910     0.79556544     0.77586367     0.00070474     0.00064715    -3.16191299
O       2.22751914     0.79555308     3.98719711    -0.00070474    -0.00064715     3.16191299
O      -0.42430482    -0.79554483     3.15739432     0.00064715     0.00070474    -3.16191299
O       3.07616298     2.38666328     1.60566640    -0.00064715    -0.00070474     3.16191299
