# total energy = -19517.16619385 eV

CRYSTAL
PRIMVEC
        5.93400000     0.00000000     0.00000000
        0.00000000     9.29699974     0.00000000
        0.00000000     0.00000000     4.64899994
PRIMCOORD
23 1
Ti      4.53493902     7.19860599     2.14640198     0.36504022    -0.10592152     0.30897678
Ti      4.53218100     2.30316497     2.25711200     0.26231741    -0.77945335     0.04201698
Ti      1.30670098     7.02903501     2.20682000    -1.84000937     0.07494537     0.17321503
Ti      1.53933402     2.29581301     2.45903900    -0.60895752    -0.68331694    -0.14942974
Ti      2.95695500     4.47405903     0.23143302     0.63993599     0.93050906     0.38822824
Ti      2.97719402     9.29240802     0.02912899     0.30727908     0.79895492     0.00358386
Ti      5.89511997     4.54079002     0.08646598    -0.05661828     0.89329104     0.05523220
Ti      0.08713798     0.02634901     4.49412098    -0.69015016     0.88226846     0.04536765
O       4.48755903     5.56798699     1.07523801    -0.77811021    -0.53042803    -1.29383050
O       4.50156201     1.01231402     0.86057302    -1.25127513    -0.87758185     0.00442847
O       1.44536198     5.72728998     0.88910298     0.68883093    -2.40925183    -1.02583300
O       1.39312801     0.93338400     0.84517301     1.26908542    -0.35598145     0.09540442
O       4.36116700     8.58288701     3.60138002    -0.24050494    -1.49426940    -0.01261435
O       4.48795300     3.59330901     3.93008101    -0.67161199     1.05021967    -0.65047186
O       1.37197500     8.23357297     3.69767001     1.48337744     1.02746463     0.74214020
O       1.54334201     3.68116502     3.92659801    -0.08951813     0.35998054    -1.36591912
O       2.96168600     1.42167802     3.24182403     0.24237027    -0.46738405     0.22539944
O       5.79532101     6.19137001     3.15899800    -0.40652601    -0.86137130     0.87626031
O       5.89816798     1.38878098     3.15946103     0.85095601     0.04146805     0.34172159
O       2.81331899     7.68942101     1.50116002     2.35599603     1.65830739    -0.90050119
O       3.03435400     3.29095797     1.53397102    -1.05299826    -0.15484423     0.77313512
O       5.92605901     8.00637099     1.25029900    -0.32842847    -0.89112540     1.12498275
O       0.12521699     3.07389100     1.37343600    -0.45048058     1.89351971     0.19850595
