# total energy = -19911.73068328 eV

CRYSTAL
PRIMVEC
        8.00688936     0.00000000     0.00000000
        0.00002622     3.65217915     0.00000000
        0.00000000     0.00000000    12.18585980
PRIMCOORD
24 1
Ti      2.90212769     2.16427800     4.52086707    -0.00849004    -0.06381583     2.43082005
Ti      5.10478754     1.48790121     7.66499290     0.00849004     0.06381583    -2.43082005
Ti      6.90543533     1.48790245     1.57201417    -0.00841625     0.06366465    -2.43082879
Ti      1.10147990     2.16427687    10.61384591     0.00841625    -0.06366465     2.43082879
Ti      2.90211476     0.33818848     1.57206306    -0.00849004    -0.06381583    -2.43082005
Ti      5.10480047     3.31399079    10.61379703     0.00849004     0.06381583     2.43082005
Ti      1.10146697     0.33818712     7.66494401     0.00841625    -0.06366465    -2.43082879
Ti      6.90544826     3.31399215     4.52091596    -0.00841625     0.06366465     2.43082879
O       2.53424018     1.28599435     6.21835102     2.53543467     0.57199662    -1.41642306
O       5.47267505     2.36618480     5.96750895    -2.53543467    -0.57199662     1.41642306
O       1.46926960     1.28600908     0.12546024    -2.53655336     0.57232006    -1.41784411
O       6.53764569     2.36617012    12.06039937     2.53655336    -0.57232006     1.41784411
O       5.47266218     0.54009522     0.12542072    -2.53543467    -0.57199662    -1.41642306
O       2.53425305     3.11208398    12.06043890     2.53543467     0.57199662     1.41642306
O       6.53763281     0.54008049     6.21839055     2.53655336    -0.57232006    -1.41784411
O       1.46928236     3.11209872     5.96746942    -2.53655336     0.57232006     1.41784411
O       0.29092464     2.22146237     3.29170477    -1.45481401     0.37648703     0.22030583
O       7.71599059     1.43071678     8.89415520     1.45481401    -0.37648703    -0.22030583
O       4.29437950     1.43068275     2.80126396    -1.45341482    -0.37637725    -0.22031046
O       3.71253573     2.22149646     9.38459584     1.45341482     0.37637725     0.22031046
O       0.29091176     0.39537280     2.80122507    -1.45481401     0.37648703    -0.22030583
O       7.71600347     3.25680641     9.38463473     1.45481401    -0.37648703     0.22030583
O       3.71252285     0.39540683     8.89419403     1.45341482     0.37637725    -0.22031046
O       4.29439238     3.25677238     3.29166588    -1.45341482    -0.37637725     0.22031046
