# total energy = -19517.22025147 eV

CRYSTAL
PRIMVEC
        5.93400000     0.00000000     0.00000000
        0.00000000     9.29699974     0.00000000
        0.00000000     0.00000000     4.64899994
PRIMCOORD
23 1
Ti      4.50365400     7.09508601     2.28626999     2.00569827    -0.64405130     0.41247529
Ti      4.39789698     2.24399798     2.32102799    -0.46633272     0.60478719    -0.48419238
Ti      1.44053398     7.15732001     2.12900300    -1.40751829    -0.61095347     0.56943863
Ti      1.40969602     2.23689299     2.43184400     1.02809043     0.98946371    -0.77593737
Ti      3.05419598     4.57233100     0.12588201    -0.31576372    -1.65970221     0.72167781
Ti      2.86998699     9.18676001     4.60412302     0.75506334     1.48931232     0.08453430
Ti      0.07539802     4.70400702     0.05292799     0.24956808    -0.64924030    -0.91593810
Ti      5.89555999     0.09421302     4.58339202    -0.44119478    -0.30322985     1.44833200
O       4.49574101     5.55789500     0.97434698    -0.57989813     0.14309326    -0.23447698
O       4.34800498     0.91146998     0.72185201     1.20060046     0.56700790     1.86843859
O       1.51501801     5.59764198     1.01755102     0.38861467    -0.34677047    -1.02981230
O       1.57241300     0.87431099     0.98109901    -0.52294072    -1.18084513    -0.66810500
O       4.56987800     8.31091599     3.74303198    -1.14689575    -0.10016250    -0.07443115
O       4.46015299     3.75163201     3.77023000    -0.12896195     0.20020056    -0.51503149
O       1.53123200     8.32239299     3.61858500    -0.34659975     0.29135700     0.94133367
O       1.47715898     3.59710098     3.89375801     0.03651533     1.71591375    -0.60366568
O       2.82679899     1.42999002     3.44793798     1.61213936     0.07551204    -1.99603400
O       0.01926898     6.12489302     3.17138201     0.10949355    -0.56046033     0.42933916
O       0.00135501     1.30359699     3.21686898    -0.86190223     0.57656290    -0.73340025
O       3.01214999     7.84858203     1.37998102     0.05492033    -0.36907814     0.15930972
O       2.95733098     3.16609098     1.36364897     0.73353909     0.10168357     1.05945456
O       5.89774199     8.08644302     1.45152600    -0.15686923    -0.85765708    -0.18360229
O       0.14036199     3.12133201     1.36811999    -1.79936665     0.52725581     0.52029403
