# total energy = -19073.80644038 eV

CRYSTAL
PRIMVEC
        7.60600008     0.00000000     0.00000000
        0.00000000     7.60600008     0.00000000
       -1.89786986    -1.89786986     4.85670466
PRIMCOORD
22 1
Ti      3.73936399     6.66221002     1.02189398    -0.14748187     0.21459926     0.80888092
Ti      3.94322000     2.90072500     1.18044199     0.00954317    -0.23853136     0.38846169
Ti     -0.00301599     6.60510100     1.31002400     0.32926125    -0.36685182    -0.86174488
Ti      0.09258199     2.90313402     0.98255102     0.30299588    -0.61292011     0.61209581
Ti      5.80255724     3.00867424     3.50150982    -0.24207459    -0.96820865     0.97335857
Ti      5.95862622    -1.05326879     3.83760284    -1.69239817     0.41698732    -1.23990185
Ti      2.05722424     2.69788421     3.48566282    -0.05979771    -0.48237358     0.25586548
Ti      1.29121323    -0.79191979     3.94339082     1.30173639    -1.10621420    -0.89309461
O       3.84402901     4.66573099     0.52654899     0.23158963     1.84528939     0.14509383
O       3.47840102     0.93811098     1.22017299     0.49321259    -0.13776156    -2.11816993
O       0.00819902     4.66771202     0.64942500     0.55546288     0.60221943     0.87192028
O      -0.12628302     0.90584699     0.87153599     0.63191903    -0.80046313     0.58027300
O       5.16589721     4.60306223     4.27469081     1.95629887     2.39833363    -1.11529894
O       5.44309724     0.77437724     3.89083579     1.52822289     0.12728559     1.18377464
O       1.97208020     5.08452520     4.01139481    -0.37662639    -0.88915877     0.89106447
O       2.36285125     0.75460723     4.10093080    -1.11251984     0.04245741    -0.80029447
O       3.95975324     2.88524624     3.14584582    -1.21222443    -0.33728952    -0.09498944
O       0.20220524     2.72337621     3.26591879    -0.89225515     0.34521187    -0.85467075
O       5.38311199     6.52263402     1.93264702     0.94616760    -0.20732715     0.28953409
O       5.79791001     2.99792602     1.58899403     1.37942255    -0.06848624     0.04036453
O       1.91761998     6.48913901     1.76962699    -1.57055381     0.41782139     0.46751903
O       2.10258801     3.05159602     1.48130302    -2.35990000    -0.19461895     0.46995901
