# total energy = -19517.77283193 eV

CRYSTAL
PRIMVEC
        7.60600008     0.00000000     0.00000000
        0.00000000     7.60600008     0.00000000
       -1.89786986    -1.89786986     4.85670466
PRIMCOORD
23 1
Ti      3.84689201     6.60897400     1.20062698     0.63644700    -0.65968489     0.74569707
Ti      3.70349398     2.81596202     1.14867998     0.41371225     0.37844570     1.19241150
Ti      0.15667398     6.77121800     1.14921497    -1.09531426    -0.97956958     0.79472134
Ti     -0.07552402     2.91846101     1.20085098     0.91813074     1.63293471    -0.47570877
Ti      5.56372521     2.97337521     3.64124283    -0.15482392    -1.58661241     1.85970095
Ti      5.73696122    -0.89819779     3.67525480     0.02837702     0.81228224    -1.33049959
Ti      1.85792820     2.71335624     3.63910279     1.42666891     0.13322125     0.73032110
Ti      1.85536725    -1.10718079     3.60071384     0.29316578     0.38072704    -0.33625080
O       3.88671599     4.70568800     0.70138100    -0.43823364    -0.15507563     0.43890573
O       3.72011601     0.92978200     0.91217601     0.11806819    -0.52011225    -0.65242153
O      -0.00257498     4.76287402     0.76116199     0.16367366     0.40168874     0.18729414
O       0.27995202     1.14624502     0.92544200    -0.33241471    -3.74823811    -0.64127836
O       5.84417624     4.74064821     4.06179783     0.33649222     2.04504130     0.58697690
O       5.46153023     0.89019922     4.08749679     0.08014337     0.60215901    -0.60331292
O       1.78975525     4.71060120     3.89737981    -0.53479814    -0.31361017     1.65444868
O       2.12332424     0.84338820     3.99526882    -0.71482994     0.54324216     0.82784873
O       3.82177821     2.97533825     3.28245579    -1.53496047    -0.33385787    -0.85937252
O       3.77548023    -1.18856078     3.13880179     0.69915031     0.52270855     0.14153208
O       0.00930320    -0.67810979     3.29454680     0.34103819    -0.50991062    -0.52080054
O       5.78419299     6.56836901     1.64088202    -0.31395341     0.69452361    -0.06581358
O       5.79450899     3.02415199     1.84680902    -0.42511664    -0.62493848    -1.82911766
O       1.89534098     6.27251601     1.59582300    -0.07036289     1.37696406     0.22138672
O       1.83412798     3.01235600     1.82489299     0.15974038    -0.09232809    -2.06666814
