# total energy = -4984.36807014 eV

CRYSTAL
PRIMVEC
        3.14986415     0.00000000     0.00000000
        2.32252495     4.35473356     0.00000000
       -0.00001494    -0.00006728     5.10720742
PRIMCOORD
6 1
Ti      2.73618683     2.17733303     2.55360382     0.00000000     0.00000000     0.00000000
Ti      0.00000000     0.00000000     0.00000000     0.00000000     0.00000000     0.00000000
O       2.02755495     0.84866028     0.99531956    -2.44660303     1.45465332     1.36751191
O       3.44481874     3.50600589     4.11188813     2.44660303    -1.45465332    -1.36751191
O       0.70862555     1.32864571     3.54892437     2.44612994    -1.45505621     1.36755897
O       1.61388412     3.02602054     1.55828326    -2.44612994     1.45505621    -1.36755897
