# total energy = -19072.06071761 eV

CRYSTAL
PRIMVEC
        7.60600008     0.00000000     0.00000000
        0.00000000     7.60600008     0.00000000
       -1.89786986    -1.89786986     4.85670466
PRIMCOORD
22 1
Ti      3.49043600     7.02752701     1.21093800    -1.89210046    -2.59543473     1.12753380
Ti      3.96605998     3.00255002     1.23313598    -0.32767231     1.25764786    -0.65975894
Ti     -0.30503899     6.42124699     1.00777902     1.68188673     0.33418440    -0.89792880
Ti      0.27874200     2.64816700     1.28573800     0.19991106     0.11979417    -0.31053256
Ti      5.88516525     2.70533021     3.40477479    -0.09008146     1.11113812     1.16400414
Ti      5.47216225    -1.24300079     3.70213579     1.56947549     0.53316729    -0.50783677
Ti      2.08662522     3.26644521     3.78014583    -0.95389711    -2.18649882    -0.58035014
Ti      1.48365420    -0.60565580     3.83565181     1.84325282     0.44465626    -2.80173421
O       3.55805897     4.95011101     0.75567099     0.44394818    -0.71336312     0.03157779
O       3.93137299     1.11950802     0.75139598     0.92891292     1.21359431     1.68064591
O       0.17966901     4.32025398     0.41136102     0.07281110    -0.42734939     1.49278665
O       7.15859400     0.70056898     0.70339801    -0.24379312     0.85361377     1.67983602
O       5.94197825     4.59283222     3.96154880    -1.07850233     0.31160316     0.82060516
O      -0.21244779    -0.50086277     3.92000679    -4.00107920     0.25094979    -0.35941310
O       1.65870720     5.07055625     4.20656183     0.42069897    -1.03213812    -1.68653143
O       2.12432820     1.17216523     4.05006883    -0.12482685    -0.24515143     0.54463724
O       3.95784625     3.12993823     3.17292980     0.37330812     0.54098473     1.15484509
O       0.09297221     3.08540420     3.18966281     2.02544255    -1.01609520    -0.48260216
O       5.11806001     6.52234398     1.83400299     2.70939404     0.16384695     0.73856200
O       5.97831198     2.92883002     1.56282902    -2.15350976    -0.49715846    -1.31735404
O       1.39597599     6.57044598     1.80633601     0.82633846     0.71296306     0.04826425
O       2.19566098     2.53393801     1.81402797    -2.22991757     0.86504489    -0.87925616
