# total energy = -19961.60981683 eV

CRYSTAL
PRIMVEC
        7.60600008     0.00000000     0.00000000
        0.00000000     7.60600008     0.00000000
       -1.89786986    -1.89786986     4.85670466
PRIMCOORD
24 1
Ti      3.81200002     6.53697599     1.20799900    -0.97591322     0.94465245     0.74050215
Ti      3.80251701     2.85704898     1.22625202    -0.28230055    -0.34136986    -0.25143418
Ti     -0.00961801     6.70568998     1.22119001     1.03268654     0.45024430    -0.24135289
Ti     -0.03002398     2.92528300     1.20694901     0.32566530    -0.98020490     0.37035521
Ti      5.70295322     2.86959524     3.67028683     0.78771200     0.01974865    -0.40195793
Ti      5.75163224    -0.95313078     3.61690179    -0.64141283     0.06430306     0.34181209
Ti      1.92213322     2.84977422     3.64259081    -0.63810665    -0.45695436    -0.72053290
Ti      1.90263722    -1.01517279     3.70961783     0.37519788     0.46473787    -1.19646587
O       3.63198900     4.73575199     0.71379899     0.61782526    -0.07342919     1.14324942
O       3.69435403     0.85714099     0.71460302     0.41486565     0.82260959     1.37324419
O       0.03954801     4.79812903     0.77587201    -0.16359910    -0.18304513    -0.37634228
O      -0.03236099     1.00422798     0.82366698     0.22085296    -0.69509825    -0.80134810
O       5.78738224     4.76065423     3.89278480     0.10084282     0.15255492     1.22208718
O       5.73271225     0.92249724     3.97652081    -0.33411729     0.53988533     0.70692816
O       1.82236125     4.69831720     4.05835479     0.11400738     0.07935507    -0.21418300
O       1.79911020     0.92568823     4.18088181     0.75824611    -0.11878424    -1.01025391
O       3.84410023     3.02041521     3.24515980    -0.37016546    -0.93071861     0.08678916
O       3.82083421    -1.03436779     3.23830484    -0.40385181     0.08365242    -0.22925584
O      -0.02455076     2.64370821     3.19577179     0.36342608     0.83957065    -0.45231969
O       0.02082625    -0.99234578     3.14572983    -0.24022289     0.15695228     0.27144946
O       5.69680000     6.64857000     1.57583699    -0.09227358    -0.04569366     0.08191718
O       5.73100502     2.94764402     1.56724003    -0.82828453    -0.06949360     0.08091393
O       1.89293100     6.69672302     1.62190398     0.17011530    -0.14992185     0.07072310
O       1.93284001     2.99098501     1.71794097    -0.31119564    -0.57355291    -0.59452437
