# total energy = -4986.47542569 eV

CRYSTAL
PRIMVEC
        3.16171771     0.00000000     0.00000000
        1.90536070     4.57286537     0.00000000
       -0.00001215    -0.00006582     5.06014094
PRIMCOORD
6 1
Ti      2.53353304     2.28639962     2.53007041     0.00000000     0.00000000     0.00000000
Ti      0.00000000     0.00000000     0.00000000     0.00000000     0.00000000     0.00000000
O       1.95218314     0.89117117     0.98614692    -0.91594119     0.73138708     0.42862620
O       3.11488295     3.68162807     4.07399385     0.91594119    -0.73138708    -0.42862620
O       0.58134470     1.39520189     3.51621844     0.91542414    -0.73107263     0.42783095
O       1.32400384     3.17759755     1.54392239    -0.91542414     0.73107263    -0.42783095
