# total energy = -19072.48349468 eV

CRYSTAL
PRIMVEC
        5.17600016     0.00000000     0.00000000
        0.00000000     5.50899976     0.00000000
        0.00000000     0.00000000     9.26300011
PRIMCOORD
22 1
Ti      1.47624398     3.29458601     3.59122399     0.95770132    -0.52504800     0.97006216
Ti      4.20926799     2.12232198     5.80403899    -0.43499662     1.41932969    -0.82772583
Ti      4.06020299     2.11834199     1.55165099     0.09182210    -1.16819967     1.58765808
Ti      1.05840303     3.04054701     8.15711797    -0.55988980     0.69434466     0.33575174
Ti      1.51114200     0.51867298     1.12022098     1.24686465    -1.31073139     1.97838800
Ti      3.44754200     5.17772999     7.92516498    -0.48157860    -0.09979946     1.02516220
Ti      1.45118198     0.44564398     5.78967802     1.59943785    -0.11453318    -1.51198328
Ti      4.10003602     4.95856599     3.54038101    -0.92855862     0.49954522     0.66960601
O       3.08854799     3.29939100     4.93896003     0.30233536     0.79867698    -1.13846896
O       0.69360199     2.02677702     0.46925200    -0.79035021     0.69708058    -1.89585684
O       4.63191498     3.55702401     7.42879101    -0.10327611     0.68644315     0.07193692
O       3.31582602     0.84271302     0.36157602    -0.09245510    -0.31032995    -0.27076940
O       1.73837103     4.47418799     9.12291800     0.25448891     0.50155171     1.14475428
O       3.46678098     0.75563902     4.82381100    -0.94849008    -1.68729453    -0.53135775
O       0.64942400     4.77619701     4.54112298    -0.58540158     0.56934452     1.57949919
O       4.83586598     3.35311101     2.84971199     0.24588420    -0.34644291    -1.49603678
O       0.74534399     1.89638700     4.87019302    -0.41460571     0.99557265     0.68365273
O       2.31865801     2.07866100     2.45884400     1.00700507    -1.47016607    -1.33555592
O       2.07520002     4.59202301     6.84426002     0.01761386    -1.51197120     0.51050506
O       5.01285899     0.72231398     2.52632601    -0.15338307    -0.35533559    -1.58326072
O       3.24372901     1.32268399     7.18469900    -1.42117369     0.33148397     0.18876995
O       2.31223999     4.59043500     2.55264898     1.19100639     1.70647934    -0.15473085
