# total energy = -19519.09810706 eV

CRYSTAL
PRIMVEC
        7.60600008     0.00000000     0.00000000
        0.00000000     7.60600008     0.00000000
       -1.89786986    -1.89786986     4.85670466
PRIMCOORD
23 1
Ti      3.75753800     6.67939098     1.20446002     0.77194856    -1.17388926    -0.66115917
Ti      3.74932999     2.71618401     1.27382299     0.97619707     1.49323068     0.02951473
Ti     -0.03603401     6.63745601     1.15803101    -0.38106797    -0.25076030    -0.11094983
Ti      0.04088201     2.82639702     1.23152998    -0.81888509     0.25368262    -0.47469293
Ti      5.66424020     2.85945922     3.63200483    -0.36068991     0.80023919     0.13705579
Ti      5.66260224    -0.83248477     3.59951684     0.87330020    -0.77855887     0.32978910
Ti      1.95992024     2.82684624     3.72670083     0.50206953     0.15915932     0.37184542
Ti      1.89608320    -0.94042079     3.56272579    -0.63528820    -0.17381538     0.32313379
O       3.73761300     4.70053202     0.80816299    -0.17300034     0.94703021     0.10387621
O       3.93080302     0.91226702     0.79866500    -0.41983456    -0.01791211    -0.52743758
O       0.02878999     4.76760698     0.78352301     0.20862890    -0.01582026     0.55677954
O      -0.08406198     0.95318603     0.71707502     0.03598363    -0.04515270     0.52592809
O       5.73471820     4.74278423     4.01167379     0.24646270     0.33652385     0.09323929
O       5.86903625     1.00834524     4.16191282     0.24663779    -0.54211370    -1.69408559
O       1.98732622     4.74218324     3.94890580    -0.65293729     0.56737866     0.60843868
O       1.85062021     0.96860921     4.12159279    -0.36325485    -1.21699948    -0.47840740
O       3.84279623     2.86642521     3.46665779    -0.57442220    -0.63403607    -1.71566255
O       3.79582821    -0.75330276     3.16198081    -0.28056814    -0.16944785     0.27294044
O      -0.01904779    -0.98411580     3.17779284     0.55921874     0.34448141     0.12579024
O       5.67328199     6.63955298     1.63809802     0.29754642    -0.10519750    -0.36515926
O       5.69499800     2.87849399     1.60238798     1.25555524    -0.18665522     1.09395004
O       1.90361599     6.61876701     1.58278699    -0.27629779     0.42466618     0.29604850
O       1.92468000     2.72339003     1.58686800    -1.03730244    -0.01603392     1.15922497
