# total energy = -19958.35463507 eV

CRYSTAL
PRIMVEC
        7.60600008     0.00000000     0.00000000
        0.00000000     7.60600008     0.00000000
       -1.89786986    -1.89786986     4.85670466
PRIMCOORD
24 1
Ti      3.74469201     6.58352602     1.14702699     1.24097760    -1.54401358    -0.84763878
Ti      3.85931598     2.57679401     1.25703399     0.31936738     1.46820895     1.60540667
Ti     -0.02086900     6.73209502     1.15876699    -1.18042630     0.72127981    -0.03063625
Ti     -0.00744499     2.82202898     1.28049999    -0.73140636    -0.63713863    -0.35188208
Ti      5.77184522     2.90097022     3.77532582    -5.08682948     2.21349721     0.61842304
Ti      5.65191921    -0.59442877     3.62151680     0.92414404    -3.72434844    -1.18171390
Ti      1.78790223     2.67801022     3.69274279     2.83825186     2.15240469     0.32406916
Ti      1.96243621    -0.90094877     3.56628779    -0.45430587    -1.07756079    -0.22690405
O       4.01979899     4.56494501     0.77791998    -1.38869627     0.92844884    -0.24812569
O       4.00786900     0.73239899     0.75677702    -0.42711824     2.13358138    -1.46165212
O       0.20152102     4.91461898     0.83576699     0.26348546    -2.69653723     0.18783201
O      -0.05179100     1.02306298     0.67292502     0.78617396     0.40516693     0.25394384
O       5.45313923     4.85326924     4.13258481     1.00461677    -0.91786540    -0.89157123
O       5.28301425     1.03897322     4.22236984     1.20205391     2.31526820    -0.36225211
O       1.97464322     4.62467324     3.97376279    -0.95602598     0.56069122    -0.21788179
O       1.99985523     0.89634921     4.15729982    -0.35962188    -1.41116746    -0.99147817
O       3.83962122     2.96764121     3.14958880     0.18791891    -0.89806481    -0.43079672
O       3.86803423    -0.77997377     3.07559580    -2.26427781    -0.49249602     0.86586405
O      -0.14868177     2.88222925     3.37968581     3.40267426    -0.24138014    -1.66129656
O       0.02135622    -0.64420075     3.19172782    -0.22305742    -0.36052022     0.30540886
O       5.63756501     6.56749402     1.56748800     1.86823933     0.36830449     0.85015254
O       5.76239999     2.44949000     1.39275298     0.43834985     1.43462005     2.34633639
O       1.90080701    -0.56939202     1.51735501     0.15036537    -1.55401492     1.07449861
O       1.93318499     2.43039702     1.64851398    -1.55485284     0.85363536     0.47189505
