# total energy = -39030.67208758 eV

CRYSTAL
PRIMVEC
        5.93200024     0.00000000     0.00000000
        0.00000000     9.29399984     0.00000000
        0.00000000     0.00000000     9.29399984
PRIMCOORD
46 1
Ti      4.52691600     7.05143799     7.06019503    -2.02336098     0.46173713    -1.02626392
Ti      4.51430502     6.76388000     2.49309600    -1.18311027     1.28086648    -1.85914405
Ti      4.64596601     2.19820701     7.00395402    -0.28597465     0.07441367     0.20883228
Ti      4.09362001     2.78259501     2.20423402     1.48569040    -1.29939797     0.70163374
Ti      1.46869399     7.13511102     7.22570198     1.08338048     0.73084072    -1.84287950
Ti      1.46560598     7.13072901     1.93464700     0.66362768    -0.58432249     1.31665805
Ti      1.65178599     2.17481499     6.91446601     0.25905751    -0.64929661     0.82781582
Ti      1.13514701     2.09531701     2.39804302     0.84521474     1.16935358     0.21922674
Ti      2.89454600     4.74565502     4.69593199     1.18183320     1.28476659     0.68042136
Ti      2.96296301     4.72043501     8.94859003     0.49320050    -1.19917222     0.95611160
Ti      3.03846698     9.27351200     4.47459498    -1.73660060    -0.23226712     1.72437988
Ti      2.93151703     9.23869801     0.23651799     2.25100988     0.44191572    -0.92335959
Ti      0.09794801     4.60016599     4.67919797    -0.74744748     0.80599203     0.50347669
Ti      0.04060499     4.65686902     0.03155002    -0.59857464    -0.37665570     0.18980276
Ti      5.93083102     9.09310701     4.74645698     0.98283180    -0.22162583     0.53136520
Ti      5.88656799     0.11768002     9.27427502    -2.51750636    -0.72519149     0.13458522
O       4.37776798     5.79824201     5.45189698    -0.00559755    -1.65032437     0.47028168
O       4.58068898     5.63716400     0.68226198    -0.62189738    -1.32392322     0.92907336
O       4.48917402     0.79239398     5.73797402    -0.30567240     0.45137790    -1.61390494
O       4.53464601     1.00243798     0.86279800    -1.59356930     0.93846971     1.55535035
O       1.41781497     5.63950799     5.63215799     0.46499549    -0.85566139    -1.31325442
O       1.70742601     5.66840102     0.93324901    -1.08657894    -2.84761788    -1.73948435
O       1.34173802     0.43907398     5.78031301     1.62999516     3.67300246    -0.05800128
O       1.36099801     0.94288898     0.88426302     1.25266866     1.14563617     2.44198969
O       4.28123398     8.49780700     8.43744502     1.58856979    -0.96914221    -0.78506684
O       4.44614000     8.35760900     3.73979998     0.04286416    -0.22055600    -0.81189503
O       4.55284299     3.77550701     8.24722998    -0.86115250    -0.01891587     0.79436396
O       4.53953799     3.79626600     3.77142800    -1.55409154    -0.73144364    -0.64867234
O       1.44809900     8.36505997     8.67432402     1.09026539    -0.93186172    -2.20430860
O       1.48437600     8.20532401     3.87243000     0.47741572     0.72785695    -1.92859497
O       1.48361700     3.73946998     8.24526700     0.83020978     0.31646641     1.48667591
O       1.46458498     3.72607598     3.72674200     0.03786979    -0.42163305    -0.25339465
O       2.93579198     6.11605402     7.89442502     0.57201024     0.48843265    -0.79996639
O       3.04192102     6.01914102     3.07594400    -1.24509188    -1.04996024     1.51739649
O       2.92982398     1.23163301     8.03389699    -0.50111411     2.39581086    -1.85446849
O       3.02048400     1.47103301     3.13078999    -0.94228678     0.04922173     0.09655782
O       0.21351900     6.06321498     8.02605998    -0.88407724     0.57154153    -0.70923701
O       0.00410398     5.95126399     3.07920002     2.17134370    -0.20724102     0.60111129
O       0.11497699     1.46690400     7.97908200    -0.59483342     0.47324565    -1.23603671
O       3.09910201     8.01598000     6.20751299    -0.22741544    -1.10297847    -0.05176224
O       3.20334400     7.54760400     1.21881702    -1.90201155     3.27260262     0.67984878
O       2.75662199     3.35769802     6.05457198     1.45013383    -1.34193817    -0.11185948
O       0.00443202     7.75847399     6.09042898    -0.04533602    -0.10664914     0.76988422
O       5.89939499     7.92950302     1.14383202     0.30597013    -1.69573392     3.14929221
O       0.01561401     3.11932198     6.06210403    -0.12863568     0.22589875    -0.65372302
O       5.83468301     3.24877001     1.49053901     0.43177811    -0.21593958    -0.06085752
