# total energy = -19072.93868610 eV

CRYSTAL
PRIMVEC
        5.17600016     0.00000000     0.00000000
        0.00000000     5.50899976     0.00000000
        0.00000000     0.00000000     9.26300011
PRIMCOORD
22 1
Ti      1.98599000     3.55428800     3.29843800     0.59349053    -1.25079844    -0.17441110
Ti      3.53716002     2.08940203     5.90311097    -0.45512605     0.81927693    -2.40321384
Ti      4.55372603     2.29136998     1.31635799    -2.04863133     0.51052589    -0.26769642
Ti      0.52767698     2.96052102     8.09304302     0.16027620     3.66713572    -2.11428936
Ti      1.86516698     0.59577802     1.40603999     1.11196113     0.05372656    -2.06508563
Ti      3.11749499     5.06666002     8.12172300    -0.73206790     1.09517003     1.40707658
Ti      0.75982699     0.03673898     5.93181598    -0.04150611     0.82660843     0.47246609
Ti      4.52777798     4.98414102     3.39099999     0.15661958    -0.83787372    -0.14199488
O       3.60954797     3.28231101     4.19081399     0.70831116     0.12933296     2.63183231
O       0.79954100     1.90081299     0.17998498     1.84173561    -0.91635616    -0.30466093
O       4.18605399     3.76057199     8.94062099     0.70555339    -1.36330970     0.05283568
O       3.43958899     0.81943801     0.28451897     0.20440818     0.40421073    -2.05274459
O       1.69414102     4.78495997     9.19830798    -1.04118430    -0.53739058     0.46039270
O       4.32231798     0.75180598     4.73656301    -0.41903392    -0.06300259     0.77480531
O       1.21659998     5.04906498     4.13144300    -0.81312170    -0.03991511     2.23560588
O       0.46444300     3.55328199     2.19239902    -1.58181499    -0.05867748     0.66616305
O       4.90280801     1.66474300     6.99970800     1.12686017    -1.07080161     0.31980473
O       2.82564803     2.22672098     2.08203101    -1.29834253    -0.82882935     0.35585212
O       1.68216600     4.16028798     6.89537801    -0.09862010    -1.51492720    -0.68606622
O       0.02363898     0.71304401     2.01587602     0.45122234    -0.78611277     1.99025879
O       2.23873002     1.08447300     6.77819599     0.24981259     0.23986910    -0.05686999
O       2.86116699     4.82776502     2.40096799     1.21919777     1.52213812    -1.10006052
