# total energy = -19074.66577559 eV

CRYSTAL
PRIMVEC
        7.60600008     0.00000000     0.00000000
        0.00000000     7.60600008     0.00000000
       -1.89786986    -1.89786986     4.85670466
PRIMCOORD
22 1
Ti      3.78071200     6.85659202     1.12149302     0.34444928    -1.93899508     1.96342237
Ti      3.77708602     2.81781001     1.16686902     0.06125501     2.20767006     0.35671884
Ti     -0.16082803     6.50398798     1.06494397    -0.39780046    -0.35865925     0.64227004
Ti     -0.05312601     2.72058697     1.18538699    -0.43789040     1.00722978     1.63344713
Ti      5.64527021     2.74237622     3.59259282     1.31050359    -0.30777607    -0.92876020
Ti     -1.36341375    -0.98436277     3.83901283    -1.46115230     0.24525454    -2.08612960
Ti      2.01985321     3.01522922     3.68627682    -1.51054886    -2.00431604    -0.18678994
Ti      1.65286921    -0.78490575     3.65575880    -0.16888092    -0.05429323     0.97888361
O       3.76466501     4.71554298     0.79371899    -0.16097297     1.33774341    -0.43928754
O       4.14006701     1.03663601     0.84162398    -0.86642918    -1.46802460    -0.08645698
O       0.02446699     4.50320399     0.61624998    -0.21023867     1.82672397     1.70486006
O       7.27665202     0.94944998     0.61645800     0.43677891    -1.30698735     1.66327039
O       5.68567823     4.66656625     4.07293780     0.66834797     1.57493034     0.04716305
O       5.50640224     0.87131823     3.80485380     1.10351146    -1.31903066     0.61576632
O       1.90550621     4.85943924     4.19034382    -0.23810198     0.89920330    -1.58506023
O       2.18312821     1.00178021     4.01451780    -0.91761395    -0.59270660    -0.09355554
O       3.80032024     3.13243822     3.25573583    -0.72905611    -0.23018838    -0.25062583
O      -0.02567478     2.97027222     3.15820783     0.47028297    -0.45455809    -0.03777235
O       5.66761699     6.49460101     2.00548801     0.36945763     0.08711441    -1.14599047
O       5.63341902     2.84108402     1.68717101     0.82162075     0.17610701    -0.99981317
O       1.59519498     6.53644999     1.86186798     1.31864268     0.57058020    -1.48537004
O       1.89223698     2.62041499     1.66332200     0.19383605     0.10297812    -0.28019044
