# total energy = -19921.06631123 eV

CRYSTAL
PRIMVEC
        6.24200826     0.00000000     0.00000000
        3.12632513     5.86179615     0.00000000
        0.00000000     0.00000000    11.56079696
PRIMCOORD
24 1
Ti      4.11508518     3.47369498     4.28897324     0.50894363    -2.76581254     0.52519995
Ti      5.25324838     2.38810133     7.27182385    -0.50894363     2.76581254    -0.52519995
Ti      6.65699798     2.38810342     1.49137912    -1.54691559    -1.25747457     0.71305665
Ti      2.71133577     3.47369316    10.06941803     1.54691559     1.25747457    -0.71305665
Ti      2.55192285     0.54279710     1.49142549     0.50894363    -2.76581254    -0.52519995
Ti      6.81641082     5.31899943    10.06937172    -0.50894363     2.76581254     0.52519995
Ti      1.14817314     0.54279484     7.27177747     1.54691559     1.25747457     0.71305665
Ti      8.22016052     5.31900163     4.28901955    -1.54691559    -1.25747457    -0.71305665
O       3.07646731     2.06403812     5.89938622     1.74973739     2.05424097    -1.05263265
O       6.29186632     3.79775823     5.66141086    -1.74973739    -2.05424097     1.05263265
O       2.24625049     2.06406171     0.11902489     0.53472769    -1.32766134     1.74415938
O       7.12208322     3.79773468    11.44177182    -0.53472769     1.32766134    -1.74415938
O       4.72870387     0.86686012     0.11898737    -1.74973739    -2.05424097    -1.05263265
O       4.63962974     4.99493616    11.44180934     1.74973739     2.05424097     1.05263265
O       5.55892077     0.86683657     5.89942368    -0.53472769     1.32766134     1.74415938
O       3.80941280     4.99495979     5.66137334     0.53472769    -1.32766134    -1.74415938
O       2.12839474     3.56547667     3.12285968     0.68138399     3.08012617     2.86564440
O       7.23993889     2.29631968     8.43793734    -0.68138399    -3.08012617    -2.86564440
O       4.57249110     2.29626493     2.65757558     0.76868814     1.97840805     1.73431360
O       4.79584253     3.56553142     8.90322125    -0.76868814    -1.97840805    -1.73431360
O       0.56523229     0.63457856     2.65753868     0.68138399     3.08012617    -2.86564440
O       8.80310132     5.22721773     8.90325816    -0.68138399    -3.08012617     2.86564440
O       3.23268008     0.63463331     8.43797418    -0.76868814    -1.97840805     1.73431360
O       6.13565353     5.22716298     3.12282278     0.76868814     1.97840805    -1.73431360
