# total energy = -4984.71658064 eV

CRYSTAL
PRIMVEC
        3.08771007     0.00000000     0.00000000
        0.00000000     3.57589763     0.00000000
        0.00000000    -0.00005642     4.30377303
PRIMCOORD
6 1
Ti      1.54385508     1.78792046     2.15188652     0.00000000     0.00000000     0.00000000
Ti      0.00000000     0.00000000     0.00000000     0.00000000     0.00000000     0.00000000
O       1.54385508     0.69687873     0.83874196     0.00000000    -1.24124705    -1.56226791
O       1.54385508     2.87896215     3.46503102     0.00000000     1.24124705     1.56226791
O       0.00000000     1.09101893     2.99062943     0.00000000     1.23994427    -1.56024985
O       0.00000000     2.48482199     1.31314360     0.00000000    -1.23994427     1.56024985
