# total energy = -4984.94235958 eV

CRYSTAL
PRIMVEC
        3.05618788     0.00000000     0.00000000
        2.05103135     4.32710624     0.00000000
       -0.00001340    -0.00006435     4.92091481
PRIMCOORD
6 1
Ti      2.55360281     2.16352097     2.46045730     0.00000000     0.00000000     0.00000000
Ti      0.00000000     0.00000000     0.00000000     0.00000000     0.00000000     0.00000000
O       1.92780706     0.84327679     0.95901379    -3.28248543     1.71973621     1.84285430
O       3.17939852     3.48376516     3.96190080     3.28248543    -1.71973621    -1.84285430
O       0.62579015     1.32021821     3.41947210     3.28185474    -1.71952898     1.84245681
O       1.42522768     3.00682360     1.50144249    -3.28185474     1.71952898    -1.84245681
