# total energy = -4981.17124104 eV

CRYSTAL
PRIMVEC
        4.46505296     0.00000000     0.00000000
        0.00000000     2.99831507     0.00000000
        0.00000000    -0.00009609     5.94903828
PRIMCOORD
6 1
Ti      2.23252648     1.49910943     2.97451903     0.00000000     0.00000000     0.00000000
Ti      0.00000000     0.00000000     0.00000000     0.00000000     0.00000000     0.00000000
O       2.23252648     0.58430871     1.15937992    -0.00000000     0.00556850     2.59146417
O       2.23252648     2.41391021     4.78965813    -0.00000000    -0.00556850    -2.59146417
O       0.00000000     0.91476261     4.13390008     0.00000000    -0.00538312     2.59245276
O       0.00000000     2.08345625     1.81513791     0.00000000     0.00538312    -2.59245276
