# total energy = -19517.94772978 eV

CRYSTAL
PRIMVEC
        7.60600008     0.00000000     0.00000000
        0.00000000     7.60600008     0.00000000
       -1.89786986    -1.89786986     4.85670466
PRIMCOORD
23 1
Ti      3.81274601     6.56380899     1.14506199     0.90712744     1.16853185     0.59726800
Ti      3.80489000     2.78225798     1.20443901     0.30315837    -0.82361001     2.05299501
Ti      0.13603200     6.79230598     1.20583001    -1.06182435    -0.63361827    -0.32077301
Ti     -0.00656201     2.90583701     1.18068599    -0.37788443    -0.27992356     0.11876984
Ti      5.58178523     2.90176324     3.73458679    -1.63718191    -1.20233390    -0.46614863
Ti      5.78259324    -1.03723075     3.52362181    -1.25563983     2.00130219     0.02676571
Ti      1.78865223     2.76701820     3.70296279     2.14020969     1.25980116    -0.73254381
Ti      1.92713321    -0.88454676     3.62517479     1.16109725    -2.10167295    -0.01327461
O       3.92480601     4.65301201     0.90982402    -0.82208766     0.27404319    -0.87706789
O       3.74312300     0.83511901     0.80223700     0.45426859     1.24012399    -0.93568855
O      -0.11821000     4.80346700     0.90611100     0.87664829    -0.09841364    -0.39053735
O      -0.00962198     0.94083101     0.68812400     0.40376825     0.16833121     0.47454946
O       5.57342725     4.82101123     3.97331680     0.91312968    -0.85356929     0.11250946
O       5.60050620     1.02672521     4.16954181     0.88629224    -0.04595000    -0.95331270
O       1.73980023     4.80147523     3.93769179    -0.05116471    -1.52092481     0.64806145
O       2.01874321     0.88956125     4.12323779    -0.84687824     1.38823039     0.34569960
O       3.69334822     2.92939820     3.41356279     0.48073348     0.00220061    -1.07532881
O       3.85815222    -0.66291976     3.09093580    -0.49735592    -1.13694044     0.55182348
O       0.11112521    -0.67646675     3.07797080    -0.79976919    -0.04763690     1.30702335
O       5.75994397     6.59726500     1.66557598     0.05682192     0.06777276    -1.03436136
O       5.69950601     2.61362702     1.75222399     0.57406070     0.61677522     0.35864640
O       1.97697102     6.55235097     1.57247899    -0.59067492    -0.15629742    -0.14890961
O       1.90232601     2.60526401     1.68399298    -1.21685473     0.71377810     0.35383509
