# total energy = -4979.63970408 eV

CRYSTAL
PRIMVEC
        5.11048041     0.00000000     0.00000000
       -0.00000774     3.06628825     0.00000000
       -2.55526899    -1.53320006     5.56553359
PRIMCOORD
6 1
Ti     -0.00021906     2.29982517     1.39138303    -0.00694430    -0.00920172    11.97660277
Ti      2.55542257    -0.76673710     4.17414988     0.00694430     0.00920172   -11.97660277
O       0.00005412     0.76656221     0.90657983     0.00417162     0.00533736    -6.11309417
O       2.55514928     0.76652580     4.65895314    -0.00417162    -0.00533736     6.11309417
O      -0.00002105    -0.76657242     3.68934662    -0.00230499    -0.00004628    -2.28960935
O       2.55522439     2.29966038     1.87618629     0.00230499     0.00004628     2.28960935
