# total energy = -19938.05744247 eV

CRYSTAL
PRIMVEC
        5.97986297     0.00000000     0.00000000
        0.31805314     6.35643035     0.00000000
        0.00000000     0.00000000    10.70598645
PRIMCOORD
24 1
Ti      2.35589063     3.76681458     3.97184461     0.03544293    -1.05646462     0.68118061
Ti      3.94202523     2.58961553     6.73414196    -0.03544293     1.05646462    -0.68118061
Ti      5.28682066     2.58961770     1.38110589     0.02932653     0.53405921    -0.51671325
Ti      1.01109527     3.76681265     9.32488080    -0.02932653    -0.53405921     0.51671325
Ti      2.19686418     0.58859965     1.38114880     0.03544293    -1.05646462    -0.68118061
Ti      4.10105168     5.76783065     9.32483790    -0.03544293     1.05646462     0.68118061
Ti      0.85206882     0.58859729     6.73409899    -0.02932653    -0.53405921    -0.51671325
Ti      5.44584711     5.76783300     3.97188758     0.02932653     0.53405921     0.51671325
O       2.00465621     2.23820709     5.46318294     1.41070903     1.38454779    -0.12372564
O       4.29325965     4.11822303     5.24280363    -1.41070903    -1.38454779     0.12372564
O       1.20929522     2.23823274     0.11022412    -1.18662368     0.98756109     0.20594852
O       5.08862070     4.11819743    10.59576214     1.18662368    -0.98756109    -0.20594852
O       4.13423320     0.94000791     0.11018941    -1.41070903    -1.38454779    -0.12372564
O       2.16368266     5.41642221    10.59579686     1.41070903     1.38454779     0.12372564
O       4.92959425     0.93998232     5.46321772     1.18662368    -0.98756109     0.20594852
O       1.36832155     5.41644792     5.24276885    -1.18662368     0.98756109    -0.20594852
O       0.41072019     3.86634113     2.89195408     0.42160374     0.05930123     0.53937599
O       5.88719573     2.49008898     7.81403255    -0.42160374    -0.05930123    -0.53937599
O       3.33179772     2.49002976     2.46107325     0.50848006     0.56959392    -0.09663803
O       2.96611820     3.86640035     8.24491314    -0.50848006    -0.56959392     0.09663803
O       0.25169375     0.68812601     2.46103908     0.42160374     0.05930123    -0.53937599
O       6.04622218     5.66830410     8.24494730    -0.42160374    -0.05930123     0.53937599
O       2.80709175     0.68818523     7.81406666    -0.50848006    -0.56959392    -0.09663803
O       3.49082417     5.66824488     2.89191985     0.50848006     0.56959392     0.09663803
