# total energy = -19867.58504939 eV

CRYSTAL
PRIMVEC
        6.75435688     0.00000000     0.00000000
        0.00002127     2.72674009     0.00000000
        0.00000000     0.00000000    10.45406041
PRIMCOORD
24 1
Ti      2.44814220     1.61586362     3.87838186    -1.70668503     0.83509050    -3.10789769
Ti      4.30623614     1.11087638     6.57567864     1.70668503    -0.83509050     3.10789769
Ti      5.82520536     1.11087731     1.34860662    -1.70330171    -0.83576593     3.11180037
Ti      0.92917297     1.61586283     9.10545398     1.70330171     0.83576593    -3.11180037
Ti      2.44813166     0.25249362     1.34864853    -1.70668503     0.83509050     3.10789769
Ti      4.30624667     2.47424647     9.10541207     1.70668503    -0.83509050    -3.10789769
Ti      0.92916244     0.25249264     6.57563673     1.70330171     0.83576593     3.11180037
Ti      5.82521590     2.47424745     3.87842378    -1.70330171    -0.83576593    -3.11180037
O       2.13780418     0.96013152     5.33462699    10.61257985    -2.38650707     7.20490479
O       4.61657420     1.76660847     5.11943351   -10.61257985     2.38650707    -7.20490479
O       1.23942888     0.96014250     0.10763041   -10.61430506    -2.38667008     7.20349145
O       5.51494955     1.76659749    10.34642980    10.61430506     2.38667008    -7.20349145
O       4.61656367     0.40323843     0.10759650   -10.61257985     2.38650707     7.20490479
O       2.13781467     2.32350156    10.34646371    10.61257985    -2.38650707    -7.20490479
O       5.51493901     0.40322745     5.33466095    10.61430506     2.38667008     7.20349145
O       1.23943927     2.32351260     5.11939955   -10.61430506    -2.38667008    -7.20349145
O       0.24541436     1.65855788     2.82390251     4.85757646    -1.80248488     3.03254068
O       6.50896397     1.06818211     7.63015799    -4.85757646     1.80248488    -3.03254068
O       3.62260169     1.06815676     2.40316094     4.85956136     1.80295874    -3.03130398
O       3.13177669     1.65858328     8.05089937    -4.85956136    -1.80295874     3.03130398
O       0.24540382     0.29518784     2.40312755     4.85757646    -1.80248488    -3.03254068
O       6.50897451     2.43155215     8.05093276    -4.85757646     1.80248488     3.03254068
O       3.13176615     0.29521319     7.63019128    -4.85956136    -1.80295874    -3.03130398
O       3.62261223     2.43152681     2.82386917     4.85956136     1.80295874     3.03130398
