# total energy = -19900.14148628 eV

CRYSTAL
PRIMVEC
        8.21650744     0.00000000     0.00000000
        0.00003100     5.24690896     0.00000000
        0.00000000     0.00000000    12.54889926
PRIMCOORD
24 1
Ti      2.97810689     3.10931337     4.65555215     0.53807990    -0.60628461     2.14576610
Ti      5.23843101     2.13759552     7.89334725    -0.53807990     0.60628461    -2.14576610
Ti      7.08621924     2.13759729     1.61884742     0.53692856     0.60662553    -2.14758002
Ti      1.13031873     3.10931180    10.93005205    -0.53692856    -0.60662553     2.14758002
Ti      2.97809166     0.48585896     1.61889776     0.53863834    -0.64668796    -2.14620011
Ti      5.23844625     4.76105007    10.93000178    -0.53863834     0.64668796     2.14620011
Ti      1.13030343     0.48585706     7.89329692    -0.53734996    -0.64689905    -2.14644179
Ti      7.08623448     4.76105197     4.65560241     0.53734996     0.64689905     2.14644179
O       2.60058725     1.84752579     6.40360727     0.67953048     1.49923523    -1.97562792
O       5.61595072     3.39938304     6.14529213    -0.67953048    -1.49923523     1.97562792
O       1.50773606     1.84754697     0.12919796    -0.68010049     1.49936970    -1.97626144
O       6.70880198     3.39936192    12.41970104     0.68010049    -1.49936970     1.97626144
O       5.61593549     0.77592849     0.12915723    -0.67916512    -1.49915784    -1.97462956
O       2.60060248     4.47098033    12.41974176     0.67916512     1.49915784     1.97462956
O       6.70878668     0.77590737     6.40364792     0.67988735    -1.50059149    -1.97682914
O       1.50775116     4.47100152     6.14525141    -0.67988735     1.50059149     1.97682914
O       0.29854347     3.19146747     3.38977076    -2.17620206     0.70013865     0.18439650
O       7.91799451     2.05544136     9.15912857     2.17620206    -0.70013865    -0.18439650
O       4.40680664     2.05539258     2.88471879    -2.17545104    -0.69991316    -0.18342360
O       3.80973126     3.19151631     9.66418034     2.17545104     0.69991316     0.18342360
O       0.29852816     0.56801292     2.88467874    -2.17678236     0.69992036    -0.18326624
O       7.91800974     4.67889591     9.66422039     2.17678236    -0.69992036     0.18326624
O       3.80971603     0.56806176     9.15916856     2.17674739     0.69997898    -0.18530924
O       4.40682187     4.67884706     3.38973070    -2.17674739    -0.69997898     0.18530924
