# total energy = -4990.47316047 eV

CRYSTAL
PRIMVEC
        3.72708525     0.00000000     0.00000000
       -0.00000830     3.72708525     0.00000000
       -1.86357185    -1.86357600     4.75658969
PRIMCOORD
6 1
Ti     -0.00016413     2.79545510     1.18914729     0.00100710    -0.00100710     0.00000000
Ti      1.86366912    -0.93194596     3.56744209    -0.00100710     0.00100710     0.00000000
O       0.00003723     0.93176498     0.77480954    -0.00001620     0.00041626     0.35052068
O       1.86346766     0.93174406     3.98177989     0.00001620    -0.00041626    -0.35052068
O      -0.00002105    -0.93174880     3.15310433     0.00041626    -0.00001620     0.35052068
O       1.86352589     2.79525779     1.60348510    -0.00041626     0.00001620    -0.35052068
