# total energy = -19519.46389734 eV

CRYSTAL
PRIMVEC
        7.60600008     0.00000000     0.00000000
        0.00000000     7.60600008     0.00000000
       -1.89786986    -1.89786986     4.85670466
PRIMCOORD
23 1
Ti      3.83809502     6.70740203     1.16299898    -0.36919050    -0.17741158     0.68355065
Ti      3.75180299     2.86395199     1.25498602     0.44018382     0.03238177     0.88396102
Ti      0.01967899     6.66510399     1.19941400     0.30751922    -0.99543587    -0.66129261
Ti     -0.02272700     2.76630498     1.12770498    -0.38444794     1.06486211     0.55446400
Ti      5.62258723     2.86627624     3.65305883    -0.19513318     0.69040445     0.68118627
Ti      5.73753723    -0.93877076     3.59624679    -1.16275510    -0.93050058    -0.45593518
Ti      1.96095324     2.84652825     3.71516784     0.36772805     0.14205376     0.84485221
Ti      1.86579220    -0.92200780     3.61504681     1.46251010    -0.43059103    -0.24738701
O       3.74835900     4.71667198     0.81093000    -0.14267700    -0.06332038     0.56285223
O       3.91544798     0.98325499     0.78789000    -0.47317649     0.05798843     0.13319142
O       0.12492002     4.80963101     0.74868701    -0.09782383    -0.87307497     0.33501409
O       0.01022598     0.93092603     0.70721698    -0.00395256     0.04514087     0.69920996
O       5.65054425     4.73810921     3.98555482     0.53026528     0.09058437     0.23692519
O       5.69991321     0.93498122     4.06825480     0.32043079     0.23620399    -0.71638880
O       1.98314821     4.76506423     4.06107079    -0.68697459    -0.35788612     0.22434375
O       1.79030025     0.92663424     4.06811583    -0.29904178     0.53079056     0.15345275
O       3.77729124     2.85368722     3.31713981    -0.01169492    -0.34747187    -0.74282489
O       3.78602023    -1.06445078     3.22994881     0.27185441     0.78302333    -0.51746684
O       0.02598620    -1.10150478     3.21891483    -0.28484414     0.45106756    -0.34528540
O       5.71531999     6.62090202     1.60759000     0.27998630     0.23930577     0.08800067
O       5.73471799     2.79648703     1.72601400     0.57242445     0.19002953    -1.04770924
O       1.92618402     6.77093801     1.53675201    -0.25300642    -0.00183731     0.71024129
O       1.74577998     2.85818200     1.88598401    -0.18818348    -0.37630654    -2.05695580
