# total energy = -19959.25705653 eV

CRYSTAL
PRIMVEC
        7.60600008     0.00000000     0.00000000
        0.00000000     7.60600008     0.00000000
       -1.89786986    -1.89786986     4.85670466
PRIMCOORD
24 1
Ti      3.66856198     6.75470301     1.29727999    -0.00675223    -0.92527224     1.81334188
Ti      3.76447102     3.04809901     1.27607898     0.70677441     0.05604441    -1.09781621
Ti      0.04898599     6.55039598     1.20274702    -0.88881887    -0.99511037    -1.27208821
Ti      0.07632302     2.64320602     1.02100099    -1.03085077     2.33392824     0.50365281
Ti      5.81358122     2.83687923     3.52227082     0.06037981    -1.69033563     1.11487934
Ti      5.72686420    -1.15754078     3.50665179    -1.17817118     1.53175507     0.15752615
Ti      1.95301823     3.01122424     3.64176280    -0.50729761    -1.60968627    -0.08941503
Ti      1.73578922    -0.94612278     3.79859279     1.93038857     1.32337686    -0.59831804
O       3.55041803     4.86371499     1.09703699     0.93842601    -0.43706225    -1.94038888
O       3.77298299     0.94895398     0.93699997    -0.51507469     1.52748036    -0.62150374
O       0.27073698     4.50926201     0.81125698    -1.25519092     1.90585021    -1.08697489
O       0.32832601     0.79606801     0.68696499    -0.86038194     0.73313106     0.02735655
O       5.80496320     4.67481120     3.95973779    -0.54324345     0.14899523     0.98159099
O       5.59734823     0.84780821     3.88051779     0.04196402    -0.36516286     1.25089563
O       1.67402921     4.85651522     4.19742881     0.11191142    -1.13891119    -0.18132172
O       2.13961020     1.12018124     4.06040180    -1.12355219    -0.07902854     0.89391119
O       3.87264823     3.03016921     3.10613382    -1.18302517     0.19207356     2.36727135
O       3.59483822    -1.12297678     3.26717580     1.15411773     0.52766821    -0.11080970
O      -0.02051879     2.99340023     3.19781384     1.63960055    -1.07599884     0.08303098
O      -0.04529175    -0.79235578     3.16453679    -0.13757670    -0.15796195     0.78293900
O       5.71901799     6.51784301     1.60747702    -0.99636327     0.06189830    -0.21756503
O       5.71686900     2.87162898     1.67440599     0.92081060    -0.58605901    -2.13331913
O       1.71513702     6.58772399     1.71440501     2.84359539     0.23005263     0.33473024
O       1.89813498     3.02636400     1.78637799    -0.12166902    -1.51166472    -0.96160554
