# total energy = -39033.72694326 eV

CRYSTAL
PRIMVEC
        5.93200024     0.00000000     0.00000000
        0.00000000     9.29399984     0.00000000
        0.00000000     0.00000000     9.29399984
PRIMCOORD
46 1
Ti      4.41752998     7.15776700     6.93040499    -0.44978998    -0.86850149     0.97787497
Ti      4.47074601     6.90218201     2.34199801    -0.33682724     0.48006833    -0.83784107
Ti      4.36972898     2.06215897     6.99047201     1.50839454     0.62711312     0.61553904
Ti      4.64782702     2.53108199     2.22032900    -0.51845800     0.17475409     0.80240020
Ti      1.47342801     6.95181699     7.15645898     0.31813223     0.01632883    -0.28044627
Ti      1.48858201     6.88681698     2.25133000     0.58776571     0.35258682    -0.94464473
Ti      1.41762399     2.51866998     6.67111899     0.76002223    -1.63982347     2.27376698
Ti      1.63652700     2.31305900     2.46564202    -0.11813221     0.07535032    -0.47794897
Ti      2.86746599     4.73645299     4.72543801     1.75192386    -0.34423382    -0.64995841
Ti      2.96051700     4.74605502     9.08999698    -0.05601536    -0.21565804     0.25267886
Ti      2.92620202     0.04214802     4.78388299    -0.55758789     0.42361846    -0.74908681
Ti      3.00555400     9.24933500     0.06634300     0.57691745    -0.23029020    -0.13067997
Ti      0.00889499     4.70872400     4.75141199    -1.93544927     0.09577286    -0.20785911
Ti      5.84350101     4.69802001     9.07423898     0.24830027    -1.19395467     0.82169942
Ti      5.87918798     8.95492200     4.72391001     0.39046124     0.60080404    -0.65493761
Ti      0.03105101     0.05256900     0.05686798     0.73633208     0.25790128    -1.33034352
O       4.29045701     5.61768102     5.58237701     0.75182118    -0.19457653    -0.25951568
O       4.43249300     5.70320199     0.71882501     0.38288703    -1.30340760     0.86704496
O       4.52564698     0.65704002     5.71955600     0.09180461     0.23707457    -1.25825105
O       4.58308801     0.74440999     0.96614102    -2.10936081     2.89471691     1.44347441
O       1.46049799     5.64980499     5.69050401    -0.20566956    -1.37446547    -1.02548873
O       1.56912898     5.51438001     0.84462298    -0.62876865     0.55815019     0.27402982
O       1.39252798     1.07506899     5.49506801    -0.24582686    -2.24124586    -1.14808849
O       1.70909302     0.92703297     0.98098101    -0.92361902     0.68882939     0.55605243
O       4.57441199     8.38573599     8.39649099    -1.01089437    -0.24684708    -0.29098805
O       4.29593997     8.30045500     3.83500997     1.19830138     0.25583489    -0.38935052
O       4.40982903     3.71360401     8.13591199     0.69936500     0.95779310     1.93939875
O       4.38840502     3.85781698     3.66595298     0.76928489    -0.42394139    -0.63717899
O       1.37433301     8.23620299     8.43559300     1.49632192     1.00684720     0.96136462
O       1.55434001     8.17790898     4.04989801    -0.51384801     1.36269701    -1.30773272
O       1.59067099     3.74752602     8.34027998    -1.00071357    -0.47075914    -0.80118690
O       1.34546099     3.74392799     3.96185900     0.61730873    -0.79502884    -1.89368580
O       3.01266699     6.04086899     7.83381502    -0.11960416     0.89997077    -0.49572636
O       2.79588599     5.92923799     3.12632501     0.95713644    -0.01252153     0.75241125
O       3.02841398     1.38061498     7.86539102    -1.43424955    -1.26659736     1.23168923
O       3.01233599     1.55557500     3.37203899     0.28246613    -0.25894412    -0.69044121
O       5.85433401     6.07982998     7.88627299     0.48580781     0.07125969    -0.56958878
O       0.08852199     6.20973299     3.21120498    -1.36858869    -1.67538286     1.26923197
O       0.03664097     1.29149999     7.86035998     0.30649901     1.16439906     0.00576133
O       2.99137502     7.91830600     6.09757499    -1.31816548     0.11917710     0.87439754
O       2.99734800     7.85741500     1.45055999    -0.51481269     0.54266598    -0.30683916
O       3.05718699     2.98269699     5.92851302    -0.54485553     1.92926705    -0.69774752
O       0.01052100     7.79606298     6.08988498     0.72262038     0.06123933     0.10276549
O       5.71722699     7.97209999     1.44203002     1.61436773    -1.18092355     0.91117616
O       5.86800599     3.15264300     5.93622398    -1.00254831     1.37115440     0.06652680
O       0.07435200     3.37897301     1.31216998    -0.34045584    -1.28827126     1.03627271
