# total energy = -4984.56616816 eV

CRYSTAL
PRIMVEC
        3.02577805     0.00000000     0.00000000
        2.03062308     4.28405046     0.00000000
       -0.00001327    -0.00006370     4.87195048
PRIMCOORD
6 1
Ti      2.52819383     2.14199340     2.43597513     0.00000000     0.00000000     0.00000000
Ti      0.00000000     0.00000000     0.00000000     0.00000000     0.00000000     0.00000000
O       1.90862490     0.83488598     0.94947136    -3.88946629     1.94571415     2.20039281
O       3.14776271     3.44910083     3.92247891     3.88946629    -1.94571415    -2.20039281
O       0.61956338     1.30708171     3.38544751     3.88946603    -1.94530663     2.19978654
O       1.41104631     2.97690496     1.48650276    -3.88946603     1.94530663    -2.19978654
