# total energy = -19903.64778079 eV

CRYSTAL
PRIMVEC
        8.14275246     0.00000000     0.00000000
        0.00002564     3.28723666     0.00000000
        0.00000000     0.00000000    12.60295060
PRIMCOORD
24 1
Ti      2.95137143     1.94801336     4.67560480    -0.11337026     0.10114852     1.98869041
Ti      5.19140690     1.33922319     7.92734591     0.11337026    -0.10114852    -1.98869041
Ti      7.02260868     1.33922431     1.62582020    -0.11266887    -0.10109659    -1.98889044
Ti      1.12016964     1.94801241    10.97713063     0.11266887     0.10109659     1.98889044
Ti      2.95135872     0.30439509     1.62587073    -0.11394439     0.10114312    -1.98877757
Ti      5.19141960     2.98284158    10.97708010     0.11394439    -0.10114312     1.98877757
Ti      1.12015694     0.30439391     7.92729539     0.11323528     0.10117809    -1.98852869
Ti      7.02262138     2.98284276     4.67565533    -0.11323528    -0.10117809     1.98852869
O       2.57724170     1.15749189     6.43118921     3.19429810     0.26837005    -0.98339384
O       5.56553668     2.12974466     6.17176151    -3.19429810    -0.26837005     0.98339384
O       1.49420037     1.15750513     0.12975444    -3.19426288     0.26824509    -0.98427008
O       6.64857807     2.12973142    12.47319593     3.19426288    -0.26824509     0.98427008
O       5.56552398     0.48612633     0.12971356    -3.19406516    -0.26707807    -0.98305240
O       2.57725435     2.80111022    12.47323681     3.19406516     0.26707807     0.98305240
O       6.64856536     0.48611309     6.43123015     3.19331902    -0.26698397    -0.98376254
O       1.49421290     2.80112352     6.17172057    -3.19331902     0.26698397     0.98376254
O       0.29586065     1.99948367     3.40437136    -0.99287556     0.26468308     0.75090253
O       7.84691768     1.28775288     9.19857936     0.99287556    -0.26468308    -0.75090253
O       4.36724760     1.28772232     2.89714402    -0.99294061    -0.26478027    -0.75109305
O       3.77553078     1.99951428     9.70580647     0.99294061     0.26478027     0.75109305
O       0.29584794     0.35586534     2.89710377    -0.99328000     0.26548295    -0.75137767
O       7.84693038     2.93137121     9.70584672     0.99328000    -0.26548295     0.75137767
O       3.77551808     0.35589590     9.19861949     0.99328565     0.26535389    -0.75184304
O       4.36726030     2.93134065     3.40433117    -0.99328565    -0.26535389     0.75184304
