# total energy = -39034.49588275 eV

CRYSTAL
PRIMVEC
        5.93200024     0.00000000     0.00000000
        0.00000000     9.29399984     0.00000000
        0.00000000     0.00000000     9.29399984
PRIMCOORD
46 1
Ti      4.55832500     6.95492098     7.00169797    -0.58675861    -0.48468629    -0.74335711
Ti      4.50109199     6.93024502     2.29938501    -1.18153727     0.08167446     0.43761169
Ti      4.46533300     2.35660299     6.98168502    -0.48497734    -0.09795984    -0.37964949
Ti      4.32638100     2.43753700     2.10057899     0.14064994    -0.42977522     1.10675336
Ti      1.52645200     7.01659400     6.95058802     1.01523363    -0.31433162    -0.42077224
Ti      1.44879698     7.08673898     2.37582800     1.05229326    -0.81536011    -0.48534861
Ti      1.47627599     2.37078002     6.99371100     0.68558440    -0.82002949    -0.62068562
Ti      1.27881498     2.01673001     2.53147098     1.25002583     1.31600344    -0.54148507
Ti      2.95928301     4.69473398     4.74022402    -0.34908472    -0.27373671    -0.58659175
Ti      2.90990098     4.81203998     9.04886398     0.00722840    -0.05658512     0.31058629
Ti      2.97685598     9.22475700     4.60566398     0.14086462     0.70644891     1.28651057
Ti      2.91464098     9.15063598     9.15073103    -0.09300455     0.17907714     0.30557804
Ti      5.90705202     4.63799099     4.65079200     0.32136256    -0.52505108    -0.27552235
Ti      5.90182100     4.72424001     0.02296598     0.29880215    -0.03616155    -0.25154526
Ti      5.89847300     9.13397198     4.84089300     0.10011391     1.93134708    -0.57834185
Ti      5.88723798     0.07162901     9.26887598     0.35434597    -0.14728339     0.01641367
O       4.57819698     5.54434700     5.66024402    -0.90373744    -0.19340231    -0.75886729
O       4.46172999     5.80835501     0.74617199     0.10908526    -1.65190097     0.25443852
O       4.55814497     0.94020700     5.57914300    -0.23922195     0.10426187    -0.45740508
O       4.47065800     0.78144599     0.95532401    -0.54243226     1.26577024     0.01309798
O       1.51047000     5.62383800     5.62075401     0.09507686    -0.50510626    -1.00307076
O       1.50332700     5.74502800     0.73299400    -0.13123430    -1.33905339     0.78218618
O       1.49513698     0.72298699     5.66599702     0.38520873     1.66280245    -0.84549987
O       1.50363303     0.74710599     0.85129199     0.00159486     1.45192075     1.27882065
O       4.54791899     8.32535401     8.21578902    -0.26396369     1.47239728     2.05231855
O       4.50563900     8.18909198     3.97123798    -0.40764290     1.02228617    -1.33800901
O       4.44251498     3.91345500     8.16400601     0.24588780    -0.54042192     1.66610298
O       4.42094799     3.76599103     3.76660101     0.34292204    -0.22229072    -0.72993389
O       1.44036999     8.21474199     8.44755903     0.26322553     0.90618179    -0.07302296
O       1.53514902     8.20856602     3.96654301    -0.13589365     0.45213869    -2.13316975
O       1.54096399     3.72640402     8.33213599    -0.07017443     0.87414609     1.52117472
O       1.47071000     3.73020002     3.81160700     0.16460903    -0.42385834    -0.58108393
O       2.98156698     6.04472098     7.71334200     0.55286452     0.21804428     0.50086291
O       3.02303601     6.06896100     3.20969699    -0.48444615    -0.07474071    -0.19838511
O       2.94598098     1.43204598     7.86378402     1.06513850    -0.53254868     0.49503550
O       2.99130501     1.56931800     3.29262700    -0.24372319    -0.89467918    -0.88247698
O       0.06886797     5.98418802     7.85238602     0.18975828     0.70209731    -0.40025560
O       5.90121202     6.09812300     3.34562802     0.62986626     0.06256988    -1.49720458
O       0.02474301     1.53216399     7.96239498    -0.63921479    -0.76597820     0.38736332
O       3.08467299     8.01270497     6.09779798    -0.35343991    -1.04311802     0.58456880
O       2.95874103     7.91551199     1.30022401     0.09444025    -0.45317278     1.48240762
O       2.94122701     3.28890699     6.11008998     0.51317336    -0.14108831    -0.59256057
O       0.17410101     7.98692399     6.13813600    -1.55292426    -1.98998753     1.42712091
O       0.00192700     7.94273102     1.46280700     0.30924392    -0.21029832     0.63460300
O       0.11639402     3.19265499     6.05576401    -1.11421805     0.32303841    -0.41926969
O       0.08973798     3.09666499     1.42877799    -0.55097064     0.25040060     0.24995863
