# total energy = -19518.21786628 eV

CRYSTAL
PRIMVEC
        7.60600008     0.00000000     0.00000000
        0.00000000     7.60600008     0.00000000
       -1.89786986    -1.89786986     4.85670466
PRIMCOORD
23 1
Ti      3.78478200     6.73938799     1.24565298     0.34683500    -0.44939943    -0.48114537
Ti      3.77377099     2.97493099     1.21944902     1.18025763    -0.35331033     0.06119408
Ti      0.00097998     6.47291300     1.28218002    -0.05208003     1.01576096    -0.41109924
Ti      0.15003900     2.84910503     1.01988898    -1.73681914    -1.17579677     0.24283667
Ti      5.58921425     2.88160122     3.60344381     0.59650438    -0.12139031    -0.86887275
Ti      5.55465723    -1.01986675     3.63857583     0.22209506     0.16484968     0.53283150
Ti      2.02800524     2.94617524     3.70285182    -0.15659027    -1.20294171    -0.05871528
Ti      1.83440823    -0.87738075     3.63716981     0.45481392    -0.03157419     0.66941215
O       3.82441098     4.79232803     0.83889501    -0.09928576    -0.71893650     0.42088614
O       4.07654198     0.93398001     0.66028398    -0.88816246     0.88861163     1.05235703
O       0.23015601     4.72050798     0.71365902    -0.33567024     0.70500832    -0.16675230
O      -0.17881598     1.01681901     0.76161301     0.71365751    -1.54363460     0.59848876
O       5.52957624     4.73489822     4.10405581     0.35194430    -0.54528465     0.08182873
O       5.76605221     0.88224124     3.96411282     0.61383671     0.83445313    -0.63607882
O       1.87157923     4.67564121     4.12733183    -0.22361690     1.64064056    -0.73101504
O       1.75644825     1.07246824     4.08014181    -0.61472271    -1.38381349    -0.17625433
O       3.83624020     2.62706622     3.48260581    -0.34406824     0.54348796    -1.84196676
O       3.68843624    -0.97879879     3.25522581     0.95687548     0.43708101    -0.35272952
O       0.07558625    -1.24410275     3.25527783    -1.38811263     0.65764832    -0.60175149
O       5.63108598     6.46578700     1.70893798     1.31267618     0.22811299    -0.12779570
O       5.83730498     3.04528400     1.63323197     0.17719227    -0.14116056     1.15166875
O       1.95246201     6.49955798     1.52134501    -1.46320044     1.22378051     0.69969076
O       1.91021700     2.96051202     1.57977899     0.37564037    -0.67219306     0.94298252
