# total energy = -19076.01781856 eV

CRYSTAL
PRIMVEC
        7.60600008     0.00000000     0.00000000
        0.00000000     7.60600008     0.00000000
       -1.89786986    -1.89786986     4.85670466
PRIMCOORD
22 1
Ti      3.77251102     6.57883302     1.22789802     0.16495150     0.58905564    -0.37544599
Ti      3.83728501     2.84839101     1.22638701     0.55252925    -0.72435588     0.32760186
Ti      0.36877098     6.74602397     0.98643698    -1.09941800     0.58232706     0.28238077
Ti      0.05249100     2.94472201     1.12173200    -0.76371177    -0.74017562    -0.24786524
Ti      5.71039822     2.90058524     3.60465679    -1.41073603     0.21134424    -0.85186207
Ti      6.03453924    -0.84010180     3.52653880    -0.20724488    -0.86967340     1.37041289
Ti      1.79386823     2.74367821     3.68677880     1.97764289    -0.54119556    -0.62892780
Ti      1.34217221    -1.09624179     3.90223580     0.33243373     0.69757731     0.34443616
O       3.85244599     4.71878599     0.84358998    -0.56279412     0.00644216    -0.25849521
O       3.80288902     0.93826402     0.83577302    -0.54184117    -0.76166131     1.04656484
O      -0.16731098     4.85249098     0.74637303     0.98521599    -0.72801559     0.07296356
O      -0.16373898     0.90834201     0.65003498     0.82680126     1.31126773     0.76547195
O       5.63453923     4.82588522     3.98550782     0.59941719    -0.35748683    -1.56306007
O       5.61287625     0.98710623     3.93452980     0.84590817    -0.18505445     0.84758144
O       1.97154520     4.69979821     4.18585481    -0.53323440     0.40280871    -0.44119092
O       1.97382024     0.86243324     4.03333180    -0.99680730     0.41079199     0.13808680
O       3.79672823     2.80140620     3.12155384    -0.13755561     0.33812153     0.95817620
O       0.03993521     2.90201920     3.19800783    -0.75922956     0.01289434     0.18848533
O       5.55115503     6.68114901     1.76960503    -0.30009593    -0.09432250     0.13706762
O       5.71538302     2.79979301     1.60578302     0.75436195     0.38644029     0.15043042
O       1.90316502     6.55968198     2.14874603     1.26229436    -0.09235457    -1.96058542
O       1.89747499     2.84582100     1.61256803    -0.98888752     0.14522470    -0.30222712
