# total energy = -4985.69821679 eV

CRYSTAL
PRIMVEC
        2.75798908     0.00000000     0.00000000
        0.85571387     4.23578407     0.00000000
       -0.00000570    -0.00005658     4.34334271
PRIMCOORD
6 1
Ti      1.80684858     2.11786375     2.17167145     0.00000000     0.00000000     0.00000000
Ti      0.00000000     0.00000000     0.00000000     0.00000000     0.00000000     0.00000000
O       1.54575941     0.82548094     0.84645358    -3.79865078     1.88230764     2.08619645
O       2.06793774     3.41024656     3.49688933     3.79865078    -1.88230764    -2.08619645
O       0.26108683     1.29235989     3.01812581     3.79862584    -1.88341115     2.08706780
O       0.59462134     2.94336751     1.32521710    -3.79862584     1.88341115    -2.08706780
