# total energy = -19516.26409770 eV

CRYSTAL
PRIMVEC
        5.17600016     0.00000000     0.00000000
        0.00000000     5.50899976     0.00000000
        0.00000000     0.00000000     9.26300011
PRIMCOORD
23 1
Ti      1.91583702     3.14156298     3.40571101     1.84044749     0.07146872     1.39969211
Ti      3.14181000     2.24463199     5.94995898     3.87987838     0.56763860    -2.34583220
Ti      4.33675002     2.14110899     1.37002699     0.63730678     1.49592340    -1.15010706
Ti      0.79622898     3.44707399     7.90682401    -3.80415037    -0.62965440    -0.31111260
Ti      2.08002903     0.11380798     1.38730600    -0.00135343     1.21754635    -0.20365921
Ti      3.32006399     5.04987801     8.00538201     2.43363258    -1.70475156     1.39947202
Ti      0.80531300     0.52719702     5.87985099    -2.41962803     0.70263030    -1.10418997
Ti      4.64003701     4.98336699     3.41335000    -0.72756513     0.97572450     2.59806626
O       1.62440699     2.03498001     4.78930801    -0.90110926    -1.51377277     0.21907504
O       3.54748501     3.38741900     4.50067998     0.36026234     0.99833530    -0.44616010
O       4.26318798     3.49921700     9.01331502     0.71052874    -0.47151093     1.00831813
O       3.35695500     0.91544500     0.17377900     0.57967034    -0.33817552    -0.43201003
O       1.70867201     4.73541401     8.95941900    -1.06637263    -0.33145003     1.76438523
O       4.26970601     0.63316799     4.85943500    -0.57673953     0.21460158    -0.90657285
O       1.03657901     4.88740499     4.44255599     2.00344958    -1.64161604    -0.77252680
O       0.28440197     3.41257000     2.55977699     0.54667227    -0.62982743    -1.50525290
O       5.05048302     2.17564702     6.65979502    -0.01965043    -0.57395374     1.06758773
O       2.89150001     1.72603897     2.38336099    -1.51067279     0.09622409     0.44711783
O       2.28113199     3.57016401     6.84162598     1.20058658     0.68006064     0.87192285
O       0.28145001     0.76163899     2.22877900     0.79036255    -0.29380444    -1.67654269
O       5.01620599     4.78301101     6.93274999    -0.22422368     0.52745224     1.08159177
O       2.50909499     0.69650802     6.87826399    -1.43934625     0.72876198    -0.73657402
O       3.23855900     4.43504300     2.18817000    -2.29198608    -0.14785083    -0.26668803
