# total energy = -19516.98367205 eV

CRYSTAL
PRIMVEC
        5.93400000     0.00000000     0.00000000
        0.00000000     9.29699974     0.00000000
        0.00000000     0.00000000     4.64899994
PRIMCOORD
23 1
Ti      4.52968497     7.05664800     2.26381699     1.14429483     0.22873185    -0.57481943
Ti      4.40388203     2.26868902     2.44818198     1.65374034     0.14661053    -1.04842710
Ti      1.45894798     7.02083498     2.12592499    -0.48235070     1.01791503     1.16599726
Ti      1.45430000     2.27556198     2.26377498    -1.03962826     0.52381284     0.57267076
Ti      2.95178002     4.38561499     0.19506997     0.35790104     0.75353354    -1.13933131
Ti      2.93547501     9.27525199     4.59153098    -0.22385806    -0.67490866    -0.27250078
Ti      0.02367301     4.67588898     0.00100602    -0.03430110    -0.51201353    -0.11810058
Ti      5.84332702     0.17880402     4.60214903     0.82393191    -1.04771721     1.18735979
O       4.36430899     5.58598399     1.00027301     0.00592768    -0.09213449    -0.82841360
O       4.40712800     0.93696299     0.96956401     0.42030842    -0.33758854    -0.90771545
O       1.54007000     5.49088798     0.93358800    -0.40162497     0.42101393    -0.53153438
O       1.60908101     0.95565702     0.94765200    -0.40960722    -0.27851100    -0.80769410
O       4.64656499     8.44962102     3.71883398    -1.50675906    -0.68723967    -0.37876220
O       4.31773800     3.43440798     3.83597202     0.24329973     2.93175340     1.43247163
O       1.43046199     8.30374601     3.51494902     1.39111876     1.18716876     2.28462192
O       1.48568201     3.74390602     3.68365300     0.29173341     0.62667629     0.93288759
O       3.04441202     1.27725200     3.14202400    -1.68836437    -0.39803289     0.87231598
O       0.04629602     6.08656202     3.17782898    -0.35690088    -0.59951823     0.33257900
O       0.05300001     1.57434502     3.45323700     0.38771222     0.15000516    -1.70737177
O       3.08667402     7.98748502     1.43878701    -0.27845752    -1.09838545    -0.19139530
O       2.96295799     3.30526502     1.55497401    -0.13163616    -1.18915596     0.76504823
O       0.13183202     7.99193699     1.39775201    -1.11266382    -0.41266298    -0.73797399
O       5.83558198     3.33896499     1.47952699     0.94618405    -0.65935245    -0.30191139
