# total energy = -19073.17745195 eV

CRYSTAL
PRIMVEC
        5.17600016     0.00000000     0.00000000
        0.00000000     5.50899976     0.00000000
        0.00000000     0.00000000     9.26300011
PRIMCOORD
22 1
Ti      2.10600898     3.43919899     3.24411700    -0.51849708    -0.02350066     1.66076845
Ti      3.55252002     2.09455902     5.83007102    -1.19643193     1.33630462    -2.00063499
Ti      4.51116700     2.34904602     1.28533302     0.20552712    -0.04522804    -1.47782154
Ti      0.46275402     2.95213298     7.99819298     0.87825754     2.18672302     1.40189478
Ti      1.93044199     0.46313799     1.39826299     0.45638846     1.15769182    -1.76459529
Ti      2.82531798     5.16628600     7.99943501     3.10724951     0.75271901     0.70782239
Ti      0.69763199     0.20561298     6.09716900    -1.34008749    -1.35965771    -2.45962644
Ti      4.70196201     4.93323099     3.39423702    -0.86094707     0.41232257     1.22594409
O       3.69202898     3.52710300     4.55873501     0.00293672    -0.61635356    -0.01433262
O       1.01983299     2.04388299     0.21394102    -0.22436612    -0.46263522    -0.66482093
O       4.17190199     3.41175602     9.04462501    -0.24005525     1.38282875    -1.31729157
O       3.41474698     0.96835002     0.03349501    -0.06058627    -1.38415416     0.01009467
O       1.71160699     4.74626098     0.00241199    -2.26196973    -0.80874157     0.87083014
O       4.14957002     0.74846402     4.80138098     1.08605212    -0.53757262    -0.15958098
O       1.29770698     4.88110799     4.36868698    -1.51853471     0.03432347    -0.35891714
O       0.36567900     3.68721198     2.29928298     0.45938714    -0.93593152     0.04289450
O       4.88126298     1.61012698     7.03403298     0.21633836    -0.46452652     0.21026747
O       2.85799499     2.11809200     2.07617402    -1.16424119    -0.91185287     1.81343624
O       1.61112602     4.22885702     6.77219999    -0.22504386    -2.65181313     1.24826616
O       0.14669100     0.90972300     2.19998801     1.01768877    -1.50510327     0.83215919
O       2.18936398     1.02351500     6.73442801     1.08205482     1.92010724     0.78734664
O       3.01722300     4.60210801     2.26681500     1.09887987     2.52405060    -0.59410323
