# total energy = -19960.90138419 eV

CRYSTAL
PRIMVEC
        5.93400000     0.00000000     0.00000000
        0.00000000     9.29699974     0.00000000
        0.00000000     0.00000000     4.64899994
PRIMCOORD
24 1
Ti      4.47036198     7.03737002     2.45596797    -1.42383349    -0.59565052    -1.00886757
Ti      4.44787798     2.34615502     2.36670101     0.10953263    -1.09099018     0.40984582
Ti      1.46032701     6.97097400     2.27255202     1.38226285     0.64046358     0.33095406
Ti      1.48357700     2.37978100     2.26485302     0.15374586    -1.39503198     0.33456595
Ti      2.93562101     4.61370298     0.04006703     1.40908615     0.08016883    -0.64182421
Ti      2.95905001     9.22016501     4.61567099    -0.30902152     1.38319128     0.83273666
Ti      0.02318400     4.71891299     0.01957601    -1.24476149    -0.68397437    -0.12093985
Ti      0.01073701     9.26348801     4.61367599     0.47655955     1.52659075     0.64346946
O       4.32034198     5.57371502     0.89092298     1.41157550     0.01031630     0.11356875
O       4.38830400     0.87680199     0.77378599     0.88216639     0.33152614     0.47143585
O       1.52642099     5.49284297     0.95329699    -0.98112819     0.29040235    -0.00267009
O       1.49497198     0.90188901     0.88477198    -0.07989500    -0.19833291    -0.85523742
O       4.47672502     8.40644100     3.71331498    -0.01471057    -0.72471300    -0.07813354
O       4.45555798     3.75070399     3.75205699     0.32370406    -0.08092113    -0.24929888
O       1.50378299     8.29581300     3.80958401    -0.71947309     0.18275768    -0.37741289
O       1.43684202     3.69223499     3.73904802    -0.06727422     0.62183336     0.30048262
O       2.87070599     6.16055100     3.25650901     0.98212603    -0.90009521     0.19810306
O       2.98355499     1.33980599     3.12136497     0.14416027     0.43437956     0.20413718
O       0.01933598     6.09794901     3.27044601    -0.33731138    -0.43888464     0.14038203
O       0.02916502     1.32669901     3.08183300     0.01694563     0.10136784     0.72603198
O       2.97177001     7.92701102     1.51152898     0.02426017    -0.13430548    -0.64448633
O       3.08836802     3.24372901     1.38895301    -1.00705546    -0.09653673     0.08561982
O       0.00564198     7.91993999     1.43549399    -0.48479351    -0.49791899     0.05213531
O       0.05312299     3.17587600     1.42388199    -0.64686717     1.23435803    -0.86459778
