# total energy = -19947.17212123 eV

CRYSTAL
PRIMVEC
        6.49039375     0.00000000     0.00000000
        0.00002554     4.60516104     0.00000000
        0.00000000     0.00000000    10.08366120
PRIMCOORD
24 1
Ti      2.35247081     2.72901415     3.74096638     0.30587192     0.55572513    -0.41562387
Ti      4.13794860     1.87614689     6.34269493    -0.30587192    -0.55572513     0.41562387
Ti      5.59755580     1.87614849     1.30082396     0.30748940    -0.55603906     0.41638877
Ti      0.89286361     2.72901277     8.78283741    -0.30748940     0.55603906    -0.41638877
Ti      2.35245803     0.42643374     1.30086438     0.30587192     0.55572513     0.41562387
Ti      4.13796137     4.17872746     8.78279698    -0.30587192    -0.55572513    -0.41562387
Ti      0.89285084     0.42643203     6.34265445    -0.30748940     0.55603906     0.41638877
Ti      5.59756857     4.17872918     3.74100681     0.30748940    -0.55603906    -0.41638877
O       2.05425965     1.62155551     5.14561514     1.15924682     0.06748454     0.20874820
O       4.43615976     2.98360558     4.93804617    -1.15924682    -0.06748454    -0.20874820
O       1.19099330     1.62157407     0.10381695    -1.15845415     0.06692918     0.20896469
O       5.29942622     2.98358703     9.97984403     1.15845415    -0.06692918    -0.20896469
O       4.43614704     0.68102501     0.10378421    -1.15924682    -0.06748454     0.20874820
O       2.05427236     3.92413603     9.97987677     1.15924682     0.06748454    -0.20874820
O       5.29941345     0.68100651     5.14564782     1.15845415    -0.06692918     0.20896469
O       1.19100590     3.92415464     4.93801343    -1.15845415     0.06692918    -0.20896469
O       0.23582668     2.80112000     2.72384847    -0.74731018     0.19061215     0.79373661
O       6.25459272     1.80404110     7.35981284     0.74731018    -0.19061215    -0.79373661
O       3.48103082     1.80399816     2.31801426    -0.74791902    -0.19042677    -0.79363968
O       3.00938859     2.80116294     7.76564689     0.74791902     0.19042677     0.79363968
O       0.23581391     0.49853942     2.31798202    -0.74731018     0.19061215    -0.79373661
O       6.25460550     4.10662162     7.76567907     0.74731018    -0.19061215     0.79373661
O       3.00937587     0.49858236     7.35984497     0.74791902     0.19042677    -0.79363968
O       3.48104353     4.10657873     2.72381629    -0.74791902    -0.19042677     0.79363968
