# total energy = -19959.68640052 eV

CRYSTAL
PRIMVEC
        7.60600008     0.00000000     0.00000000
        0.00000000     7.60600008     0.00000000
       -1.89786986    -1.89786986     4.85670466
PRIMCOORD
24 1
Ti      3.81168400     6.37028802     1.14691300     0.27542670     2.05666141     0.30379369
Ti      3.75951400     2.61718600     1.26318197     1.13891968    -1.19231611    -0.11203175
Ti      0.01203698     6.82319299     1.21903002     0.23801096    -0.69634498    -2.13571746
Ti      0.02372900     2.84315300     1.25500100    -1.08860677     0.76853336     0.65411306
Ti      5.62474025     2.90224421     3.73975881     0.30515149     2.69592119    -0.65602339
Ti      5.77137420    -0.63432477     3.57634480    -1.80402497    -2.22873872    -0.30554281
Ti      1.77733223     2.73133425     3.63953682     1.24166511     0.76250386     0.56376549
Ti      1.90959522    -0.87714278     3.50015180     1.70292607    -0.94951389     1.49365054
O       3.90522402     4.51119801     0.77022500    -0.23602016     1.01697298     1.10195208
O       3.85695802     0.78669601     0.53664299    -0.36844462     2.09448723     2.17267219
O       0.35200902     4.75228899     0.83032202    -1.12582941     0.18549565     0.52789421
O      -0.00078101     0.99975902     0.63435800     0.20694637     1.11739593     1.30031637
O       5.80600224     4.87123523     4.08585883    -0.48917621    -1.12410163    -0.06568554
O       5.43507523     1.11227523     4.13094283     0.43690052    -1.68388756     0.41206674
O       1.91743820     4.63593122     4.14568581    -0.28367017    -1.17949247    -1.07091346
O       1.81370020     0.87028623     4.10229682     0.10955346     0.48454051    -0.26717937
O       3.80357023     2.88580421     3.20243879    -0.93054609     0.10842963     0.23213471
O       3.79190420    -0.92657280     3.31510481     0.32144509    -0.31298102    -1.28773595
O       0.02296222     2.88496922     3.24885780    -1.18840109     0.02816542     0.15129765
O       0.01769024    -0.72758877     3.19466179    -0.58261579    -0.23960248    -0.45663606
O       5.66454898    -0.63667400     1.63631702     0.60197081    -1.29447019    -0.21392692
O       5.71042198     2.61448201     1.83443199     0.42071414     0.31772908    -1.52021982
O       1.96509898     6.86402299     1.51310302    -0.23210488    -0.85184047     0.46950804
O       1.81939902     2.52002298     1.74741699     1.32980976     0.11645405    -1.29155276
