# total energy = -19960.59176136 eV

CRYSTAL
PRIMVEC
        5.93400000     0.00000000     0.00000000
        0.00000000     9.29699974     0.00000000
        0.00000000     0.00000000     4.64899994
PRIMCOORD
24 1
Ti      4.40124402     7.06294500     2.21448000     0.43091551    -1.80516500     0.43010021
Ti      4.47869001     2.23227898     2.39747198     0.21088402     2.64565945    -0.20070579
Ti      1.48647398     7.03044701     2.40703702    -0.06951597    -2.02071866    -0.09173185
Ti      1.45330398     2.28419699     2.34007398     0.05348051     2.22460413    -0.79133237
Ti      2.97369801     4.62986500     0.06136001    -0.03063316     0.54116574    -0.25720169
Ti      2.99831798     0.01853200     4.60178802    -0.82199741    -1.03538028     0.02513409
Ti      0.03902301     4.70110401     4.57936202    -0.05439839     0.25900917     0.07404034
Ti      5.90306700     0.02029501     0.07117699     1.13001003    -1.17179767    -0.00913796
O       4.48972299     5.56832699     0.91298099    -0.58201904    -0.00867722    -0.41650627
O       4.49946398     0.93837203     0.91327299    -0.87161432    -0.87636161    -0.42645387
O       1.47601399     5.51993098     0.87459902     0.33215220     0.00779816    -0.17837780
O       1.45894798     0.92145502     0.86287902     0.36270334    -0.51057114    -0.10569372
O       4.41776198     8.33504499     3.66375298    -0.04734714     1.39126660     1.43680677
O       4.46253101     3.70183299     3.75774200    -0.34859672    -0.42520431    -0.41169728
O       1.45519098     8.24732502     3.75463398     0.38978067     2.47234955     1.48345534
O       1.45496698     3.79400699     3.67636200     0.60035255    -1.07010716    -0.06835537
O       2.96374202     6.12112999     3.31088499     0.68576360    -0.11174918    -0.88413071
O       3.01246400     1.39634102     3.23138002    -0.68202110    -0.59579450     0.38155725
O       0.05567199     6.01782898     3.05836198    -0.95354487    -0.21566396     1.14245057
O       5.92121302     1.32994800     3.29061099     0.05652470     0.62045602    -0.98429399
O       2.90622500     7.81033600     1.33015200     0.89805839     1.10597740    -0.38591064
O       2.87829899     3.14422898     1.37233499     0.52688865    -0.13293662     0.53396896
O       0.07181703     7.94265402     1.49111502    -1.22821258     0.74594981    -1.19732822
O       0.00740499     3.32408098     1.43486401     0.01238629    -2.03410948     0.90134451
