# total energy = -19936.35907542 eV

CRYSTAL
PRIMVEC
        4.67126186     0.00000000     0.00000000
        0.74159918     4.91601331     0.00000000
        0.00000000     0.00000000     8.38427461
PRIMCOORD
24 1
Ti      2.13257872     2.91322489     3.11050611     2.09557327     0.18159143    -0.27803894
Ti      3.28028226     2.00278829     5.27376869    -2.09557327    -0.18159143     0.27803894
Ti      4.33079004     2.00278995     1.08159776    -3.11152860    -0.71618208     2.36241017
Ti      1.08207095     2.91322342     7.30267713     3.11152860     0.71618208    -2.36241017
Ti      1.76177923     0.45521832     1.08163139     2.09568614     0.18326547     0.27707246
Ti      3.65108176     4.46079500     7.30264351    -2.09568614    -0.18326547    -0.27707246
Ti      0.71127144     0.45521652     5.27373507     3.11133860     0.71628235     2.36393020
Ti      4.70158955     4.46079680     3.11053973    -3.11133860    -0.71628235    -2.36393020
O       1.73961353     1.73101180     4.27843120    -2.66822320    -1.96805473    -0.64606113
O       3.67324745     3.18500138     4.10584356     2.66822320     1.96805473     0.64606113
O       1.11830703     1.73103167     0.08632080     2.34857197    -1.92002908    -0.48632254
O       4.29455400     3.18498155     8.29795376    -2.34857197     1.92002908     0.48632254
O       3.30244795     0.72699466     0.08629361     2.66600537     1.96636217    -0.64626476
O       2.11041303     4.18901851     8.29798096    -2.66600537    -1.96636217     0.64626476
O       3.92375450     0.72697484     4.27845844    -2.35030361     1.92082458    -0.48750345
O       1.48910643     4.18903839     4.10581636     2.35030361    -1.92082458     0.48750345
O       0.62080040     2.99019796     2.26480178    -1.25252340    -1.35551643    -2.35322541
O       4.79206058     1.92581516     6.11947302     1.25252340     1.35551643     2.35322541
O       2.79586751     1.92576944     1.92736229     0.20211578    -2.38078687    -1.52561142
O       2.61699347     2.99024369     6.45691237    -0.20211578     2.38078687     1.52561142
O       0.25000090     0.53219125     1.92733548    -1.25396450    -1.35676778     2.34983104
O       5.16286008     4.38382187     6.45693914     1.25396450     1.35676778    -2.34983104
O       2.24619397     0.53223697     6.11949974    -0.20451051     2.38246092    -1.52285803
O       3.16666700     4.38377615     2.26477502     0.20451051    -2.38246092     1.52285803
