# total energy = -4978.69532986 eV

CRYSTAL
PRIMVEC
        4.75393526     0.00000000     0.00000000
       -0.00001058     4.75393526     0.00000000
       -2.37700492    -2.37701021     6.06707869
PRIMCOORD
6 1
Ti     -0.00020935     3.56563151     1.51676951    -0.00321285     0.00321285     0.00000000
Ti      2.37712898    -1.18870658     4.55030878     0.00321285    -0.00321285     0.00000000
O       0.00004749     1.18847574     0.98827748    -0.00049314    -0.00243406    -1.33459175
O       2.37687201     1.18844905     5.07880088     0.00049314     0.00243406     1.33459175
O      -0.00002685    -1.18845510     4.02181675    -0.00243406    -0.00049314    -1.33459175
O       2.37694629     3.56537983     2.04526160     0.00243406     0.00049314     1.33459175
