# total energy = -19517.11184467 eV

CRYSTAL
PRIMVEC
        5.17600016     0.00000000     0.00000000
        0.00000000     5.50899976     0.00000000
        0.00000000     0.00000000     9.26300011
PRIMCOORD
23 1
Ti      1.86168499     3.22943202     3.36289200     1.19638077    -1.34877499     3.09685968
Ti      3.29077297     2.26105199     5.97902500     0.54690856     0.48327527    -3.31306254
Ti      4.40518301     2.05452199     1.38053999    -0.04139915    -0.05870679     0.98770944
Ti      0.91006702     3.33344498     7.74781498    -0.65928483     0.26231973    -0.40002061
Ti      2.07261800     0.20035402     1.32204098    -0.26324198     0.28314618     0.64411300
Ti      3.25361298     5.19455301     7.99349700     0.42528890     0.73436519    -1.51558823
Ti      0.71010401     0.57815297     5.88461501    -0.76180092     0.04726024    -2.81314760
Ti      4.50080899     4.92000601     3.31974897     0.53169739    -0.00942387     3.73834784
O       1.62251502     1.92838201     4.70042100    -0.63652413    -0.46572080     1.51284692
O       3.48473199     3.50092000     4.44922601     0.81625845     0.21397011     0.35698958
O       0.00549302     2.89158499     9.25610101    -0.35526565    -0.14987634     1.13896981
O       3.43384599     0.90079600     0.16229199     0.24598242    -0.20359571    -0.34078828
O       1.84276801     4.56253699     9.04587402     0.31424652    -0.06779873     0.44692629
O       4.13382298     0.66446200     5.00854498     0.34738882     0.54570605    -0.46093495
O       0.96166000     4.81348400     4.44514801     0.10496353    -0.19240215     0.09005318
O       0.21393599     3.37399102     2.59831099    -1.17847431    -0.44701730    -1.40371255
O       4.84552801     2.05759101     7.01264199     0.36492838    -0.14326655    -1.13509413
O       2.70293002     1.75248900     2.30678402    -0.14330280     0.95236396    -0.17458157
O       2.45714000     3.84059502     6.76887702     0.59287887    -0.11036336     0.48060646
O       0.24352001     0.60953700     2.06462700     0.50752670     0.10194634    -0.87998558
O       5.13122700     4.82726399     7.16856899    -1.05227270    -0.29947372     0.89454806
O       2.23560899     1.15264399     7.11232100    -0.56899665    -0.80609513     0.53438034
O       2.96249300     4.40973102     2.29331598    -0.33388615     0.67816291    -1.48543432
