# total energy = -19961.11519787 eV

CRYSTAL
PRIMVEC
        5.93400000     0.00000000     0.00000000
        0.00000000     9.29699974     0.00000000
        0.00000000     0.00000000     4.64899994
PRIMCOORD
24 1
Ti      4.41201702     7.00166702     2.19818600     1.11561853     0.54623467     0.74645452
Ti      4.44931401     2.34314400     2.31709498    -0.11074157    -0.03669403    -0.06896807
Ti      1.49985999     6.89859001     2.30297198    -1.23671239     1.14242460     0.74107500
Ti      1.47703102     2.30007400     2.41685902     0.01000211    -0.82593403    -0.79844198
Ti      2.94010197     4.65894398     0.00239903     1.34335691    -0.72438544     0.10961388
Ti      2.97142900     0.02065400     0.06158099    -0.31344922     0.27995313    -0.78197586
Ti      0.04204102     4.63606902     4.60746699    -1.38606552    -0.38493054    -0.27351817
Ti      5.92126001     9.28219998     4.63598700     0.25925805    -0.31680528    -0.30122953
O       4.47794202     5.50414900     0.81863202    -0.36409560     0.64392480     0.71570514
O       4.50686198     0.93274698     0.91463499    -0.62578926    -0.09799043     0.15924030
O       1.47408800     5.51697399     0.88830799     0.13886405     0.52346420    -0.00905389
O       1.46988898     0.89518402     1.02117202     0.28880955    -0.29045043    -0.55433210
O       4.43190900     8.35529501     3.73299301     0.10133904     0.35605524     0.28140915
O       4.44394302     3.78572902     3.65404898     0.03842952     0.26279512     0.69516048
O       1.48046898     8.36645298     3.76988799     0.15752718     0.43145338     0.04146522
O       1.51477999     3.71477402     3.76088801    -0.00718778     0.43781018     0.19382937
O       2.91143300     6.12847799     3.17562998     0.39481823    -0.97549927     0.46883389
O       3.04071598     1.36961899     3.23108702    -0.44544122     0.47156338     0.11363869
O       0.02521598     6.13028899     3.21626101     0.02468954    -0.77162537     0.05554305
O       0.01277402     1.48792001     3.40256902    -0.01604163     0.23679355    -1.06047735
O       2.98869801     7.99732200     1.44952899    -0.24341697    -1.11165003     0.10322572
O       2.93598498     3.29902999     1.50440203     0.28914225    -0.13891213    -0.65413851
O       5.85276399     7.85174899     1.36519401     0.44544739    -0.10264413     0.22511071
O       0.02609500     3.18200800     1.42023802     0.14163853     0.44504938    -0.14816964
