# total energy = -19903.50435224 eV

CRYSTAL
PRIMVEC
        8.44165258     0.00000000     0.00000000
        0.00002764     3.85048752     0.00000000
        0.00000000     0.00000000    12.84753544
PRIMCOORD
24 1
Ti      3.05970929     2.28179535     4.76634402     0.14455981    -0.23247563     2.72941317
Ti      5.38197057     1.56869223     8.08119161    -0.14455981     0.23247563    -2.72941317
Ti      7.28039109     1.56869354     1.65737241     0.14398594     0.23276386    -2.73010608
Ti      1.16128876     2.28179417    11.19016334    -0.14398594    -0.23276386     2.73010608
Ti      3.05969565     0.35655166     1.65742395     0.14455981    -0.23247563    -2.72941317
Ti      5.38198421     3.49393599    11.19011180    -0.14455981     0.23247563     2.72941317
Ti      1.16127513     0.35655022     8.08114007    -0.14398594    -0.23276386    -2.73010608
Ti      7.28040473     3.49393742     4.76639556     0.14398594     0.23276386     2.73010608
O       2.67184598     1.35582210     6.55599904     1.73158283     0.88676481    -2.09961787
O       5.76983388     2.49466542     6.29153658    -1.73158283    -0.88676481     2.09961787
O       1.54904894     1.35583763     0.13227257    -1.73267940     0.88729292    -2.10195372
O       6.89263098     2.49464995    12.71526269     1.73267940    -0.88729292     2.10195372
O       5.76982030     0.56942166     0.13223089    -1.73158283    -0.88676481    -2.09961787
O       2.67185955     3.28106592    12.71530436     1.73158283     0.88676481     2.09961787
O       6.89261740     0.56940613     6.55604072     1.73267940    -0.88729292    -2.10195372
O       1.54906239     3.28108145     6.29149491    -1.73267940     0.88729292     2.10195372
O       0.30672145     2.34208477     3.47043987    -1.91807401     0.55140619     0.09607445
O       8.13495841     1.50840275     9.37709576     1.91807401    -0.55140619    -0.09607445
O       4.52755848     1.50836688     2.95336879    -1.91407234    -0.55125064    -0.09633233
O       3.91412138     2.34212070     9.89416665     1.91407234     0.55125064     0.09633233
O       0.30670787     0.41684101     2.95332779    -1.91807401     0.55140619    -0.09607445
O       8.13497198     3.43364658     9.89420765     1.91807401    -0.55140619     0.09607445
O       3.91410780     0.41687688     9.37713669     1.91407234     0.55125064    -0.09633233
O       4.52757205     3.43361070     3.47039887    -1.91407234    -0.55125064     0.09633233
