# total energy = -19913.16107249 eV

CRYSTAL
PRIMVEC
        6.49556939     0.00000000     0.00000000
        0.00003560     6.91325012     0.00000000
        0.00000000     0.00000000    11.62564092
PRIMCOORD
24 1
Ti      2.35435259     4.09678563     4.31302995     0.05308199    -0.90545082     0.63883170
Ti      4.14125241     2.81646456     7.31261131    -0.05308199     0.90545082    -0.63883170
Ti      5.60202357     2.81646694     1.49974422     0.05284827     0.90555598    -0.63902170
Ti      0.89358143     4.09678352    10.12589716    -0.05284827    -0.90555598     0.63902170
Ti      2.35433492     0.64016070     1.49979085     0.05308199    -0.90545082    -0.63883170
Ti      4.14127008     6.27308969    10.12585054    -0.05308199     0.90545082     0.63883170
Ti      0.89356376     0.64015812     7.31256469    -0.05284827    -0.90555598    -0.63902170
Ti      5.60204123     6.27309227     4.31307657     0.05284827     0.90555598     0.63902170
O       2.05590126     2.43427296     5.93247570     1.41454178     1.31354393     0.00014810
O       4.43970374     4.47897730     5.69316556    -1.41454178    -1.31354393    -0.00014810
O       1.19194649     2.43430080     0.11969249    -1.41451041     1.31375450    -0.00033861
O       5.30365857     4.47894946    11.50594843     1.41451041    -1.31375450     0.00033861
O       4.43968607     1.02235217     0.11965477    -1.41454178    -1.31354393     0.00014810
O       2.05591893     5.89089802    11.50598615     1.41454178     1.31354393    -0.00014810
O       5.30364091     1.02232433     5.93251342     1.41451041    -1.31375450    -0.00033861
O       1.19196402     5.89092593     5.69312784    -1.41451041     1.31375450     0.00033861
O       0.23602069     4.20503063     3.14037572     0.49938889    -0.28926104     0.33137984
O       6.25958431     2.70821956     8.48526554    -0.49938889     0.28926104    -0.33137984
O       3.48381059     2.70815513     2.67248187     0.49910710     0.28929344    -0.33153462
O       3.01179440     4.20509506     8.95315919    -0.49910710    -0.28929344     0.33153462
O       0.23600302     0.74840550     2.67244474     0.49938889    -0.28926104    -0.33137984
O       6.25960197     6.16484469     8.95319631    -0.49938889     0.28926104     0.33137984
O       3.01177673     0.74846993     8.48530259    -0.49910710    -0.28929344    -0.33153462
O       3.48382826     6.16478026     3.14033860     0.49910710     0.28929344     0.33153462
