# total energy = -19517.53960850 eV

CRYSTAL
PRIMVEC
        7.60600008     0.00000000     0.00000000
        0.00000000     7.60600008     0.00000000
       -1.89786986    -1.89786986     4.85670466
PRIMCOORD
23 1
Ti      3.87802198     6.88976598     1.12887801     0.04579008    -0.14596929     0.12899975
Ti      3.71426898     2.93883798     1.38721900    -0.93258754     0.07130494     0.38326935
Ti      0.00399899     6.59936001     1.15017702    -0.46271492    -1.44222820    -0.52243396
Ti     -0.10899802     2.65296701     1.19231397     1.94722364     2.09478034    -0.77139500
Ti      5.67999222     2.68563423     3.64358280     0.14502518     0.60636097     3.33057125
Ti      5.64401124    -1.07267880     3.50799881     0.40504171    -0.25173012     0.75803194
Ti      2.07418723     2.84621021     3.86291883     0.11347902     0.04046352    -0.67637342
Ti      1.82906724    -0.86479178     3.51328984    -0.05653344    -0.00797865     1.19266475
O       4.04589102     4.74649397     0.98267998    -1.05748098     0.51821503    -0.27084165
O       3.78459600     1.10352200     0.65653799    -0.01888682    -0.45303343     0.94865771
O      -0.00700901     4.64410400     0.77710002     0.36585963     1.46249621     0.68941817
O       0.07006301     0.89059700     0.69092202    -0.36031993    -0.68391755    -0.52837912
O       5.77937923     4.62493725     3.77628580    -0.15404719     1.47026378     1.81533783
O       5.72688622     0.89805824     4.03328084     0.60257296    -1.69574652    -0.08576689
O       2.02628425     4.75371523     4.05685081    -0.87936106     0.97050104     0.04373011
O       1.69013821     1.06136023     4.07756080    -0.43236201    -0.93442562    -0.15654887
O       3.88951422     2.74946920     3.58738180    -1.95691671    -0.05067929    -2.06062708
O       3.83196821    -0.80192679     3.13916179    -0.91595147    -0.28972950    -0.15187409
O      -0.11974276    -1.21055979     3.10798981     1.59236191     0.90634814    -0.40735288
O       5.70860902     6.97507898     1.39740403     0.21652939    -0.80059708     0.92892115
O       5.75121901     2.91417700     1.89481900     0.78159637    -0.95945275    -3.79831422
O       1.83120798     6.87195101     1.68094900     0.73367536    -0.33440706    -1.39305892
O       1.80218901     2.85552500     1.71637397     0.27800732    -0.09083942     0.60336357
