# total energy = -39035.76917146 eV

CRYSTAL
PRIMVEC
        7.60600008     0.00000000     0.00000000
        0.00000000     7.60600008     0.00000000
       -3.79573973    -3.79573973     9.71340985
PRIMCOORD
46 1
Ti      2.01467347     4.74761848     6.07537463     0.49135214     0.34926624    -0.03474410
Ti      3.78945898     6.86036801     1.25759698    -0.25074590    -0.73835297    -0.27495747
Ti      2.03996242     0.77397047     6.06662463     0.37845573    -0.52988450     1.36022566
Ti      3.71337398     2.83224300     1.26479602     0.49273025    -0.88402401     1.38989158
Ti     -1.77182858     4.76666743     6.09098065    -0.53386200     0.65812475    -0.80800778
Ti      0.02692200     6.67608600     1.22743198     0.47695087     0.14105000    -1.86898957
Ti     -1.85146853     0.92832046     6.10011065    -1.07493595    -0.83031339    -1.37872296
Ti     -0.12803698     2.90521702     1.24045402     0.28241445    -0.45189854    -0.89787121
Ti      3.77822243     1.00894845     8.49973363    -0.73787474    -0.60399684    -0.10955603
Ti      5.59759599     2.74153499     3.74153198     0.00765521     0.09097621     0.17614120
Ti      3.83100347    -2.77635956     8.41083862    -0.36573468     0.13908671     1.30401156
Ti      5.73587101    -1.06961597     3.41267499    -0.39969048     0.34039593     2.41553303
Ti     -0.09245557     0.97623947     8.30732060     1.37998743     0.80100383     2.89056714
Ti      1.76943198     2.92530999     3.56902099    -0.20992140    -1.22454156     1.15185079
Ti      0.03608343    -2.77398953     8.50939762     0.62090467    -0.48509587     0.31787846
Ti      1.80370399    -0.95583398     3.71277299     1.15566039    -0.07302604     0.20654656
O       2.10743046    -1.03382153     5.81545663    -0.47237559     0.56400717    -1.97003397
O       3.80015302     0.98262299     0.71037802    -0.08157779     1.51600835     0.41142962
O      -1.90547054     2.92580244     5.83687761     0.20221348    -1.65800400    -1.43896444
O       0.14427700     4.74981901     0.74507702    -0.25334220    -0.43474260     0.45337024
O      -1.95620658    -0.84546353     5.61908662     0.72546994    -2.15483182     0.39963597
O      -0.05453701     0.93149097     0.81418100     0.19496965     0.85057935    -0.06734210
O       3.61135046     2.82266045     8.88623363     0.61744680     1.14160237     0.20824066
O       5.57427801     4.70083302     4.11613602    -0.04092349     0.50038803    -0.34512368
O       3.92371945    -0.89088355     8.80537360    -0.03024493    -1.24323194     1.34091616
O       5.83228600     0.83238200     4.01885001    -0.04040876     1.41182438    -0.31191504
O       0.07881947     2.84918943     9.07252561    -0.17473172    -1.27401808    -2.02663862
O       1.87651799     4.70381398     4.08692502     0.60739249    -0.30529804    -0.43189484
O      -0.10628557    -0.73806256     9.13173261    -0.26714954     0.19952308    -1.82768144
O       1.67197399     0.95760201     4.24782702    -0.06637742     0.59236413    -1.25922935
O       1.97134946     0.70690646     8.04746361    -0.82025857     1.12898082     0.24134183
O       3.76863501     2.52801001     3.22705400    -0.19122124     0.76063313     0.24715792
O       1.99445747    -2.59508555     8.01170065    -2.43192305    -0.66318622     0.99087396
O       3.88794400    -0.85272702     3.11445498    -0.89832269    -0.37068354     0.96980505
O      -1.96075956     1.05948747     8.02759862     1.26860771     0.22934557     0.28417720
O      -0.15522499     2.85990601     3.32032398     0.94083693     0.20303135    -0.86176339
O      -1.91213453    -2.84948053     8.11209563     2.57060686     0.13463175    -0.58080599
O       0.03576598    -1.22820801     3.29104899    -0.58560393     0.57640118    -0.50166252
O       3.83277547     4.68820145     6.49112665     1.29015356    -0.49397286    -0.22228686
O       5.79731400     6.54654299     1.40647100    -1.99516805    -0.13924200     1.86288912
O       3.84577646     0.77553043     6.39272460    -0.04257620     1.49440002     0.11574802
O       5.63330403     2.97996299     1.57034301    -0.46475689     0.20608222     0.41566192
O       0.19907145     4.68748447     6.22425462    -2.84828534    -0.31418867     1.70822049
O       1.86022398     6.64726802     1.69603399     1.49765503     0.17462528     0.08169015
O       0.05321946     0.81393943     6.57068564    -0.25713689     0.36909279    -2.22080378
O       1.81567800     2.82809499     1.74547502     0.33368638     0.29910785    -1.50481016
