# total energy = -19960.71666126 eV

CRYSTAL
PRIMVEC
        7.60600008     0.00000000     0.00000000
        0.00000000     7.60600008     0.00000000
       -1.89786986    -1.89786986     4.85670466
PRIMCOORD
24 1
Ti      3.78555899     6.51594400     1.30665801    -1.29109382     0.02931264    -0.74022010
Ti      3.79189801     2.86765401     1.25084997    -0.94148073     0.23060438    -2.12402999
Ti     -0.00517498     6.57564298     1.24782499     1.19911488     0.23629115    -0.24240524
Ti     -0.04418900     2.87196098     1.11403998     0.72484670    -0.19847844     0.52722521
Ti      5.75144121     2.83280123     3.54939581    -0.03917617     1.13802647     0.71164048
Ti      5.78763524    -0.95758280     3.68257883     0.95546960    -1.19260690     0.22082365
Ti      1.84860124     2.96004021     3.52971582    -0.43267517    -0.96780113     0.64753797
Ti      2.00706025    -0.95924378     3.74300981    -1.39824998     1.03965140    -0.37634845
O       3.53538198     4.76093803     0.75480001     0.82190922    -0.30845382     0.27510943
O       3.54270400     1.01366199     0.75847600     1.26814954     0.03318396     1.06689636
O       0.03062698     4.73895299     0.70319100    -0.78885408    -0.14386639     0.22241208
O       0.02355802     0.96043798     0.80940698    -0.64060885    -0.12013458    -0.38480507
O       5.94251420     4.63610924     4.14767880    -0.90956125     1.37408931    -0.37279956
O       5.83024120     0.90837921     3.95620284    -0.77083064     0.30883126     0.06125373
O       1.82671024     4.69456322     4.20594481     0.55196283     0.76266970    -0.83415128
O       1.84630720     0.97234520     3.98994683     0.91537143     0.32325798     0.14220700
O       3.76320321     2.99628324     3.10021381     0.18193724    -0.59061270     1.10197497
O       3.85850121    -1.25157278     3.31993784    -0.29219236     0.58856198    -0.08501381
O      -0.05810880     2.86605822     3.16930679     0.40261228    -0.41854027    -0.65766092
O       0.09976822    -1.06021678     3.39066582    -1.84536498    -0.00982547    -1.53259454
O       5.64051999     6.56353302     1.61802802     1.33045716     0.43010689     0.56288283
O       5.67891201     3.06597599     1.54062701    -0.18824930    -0.64752306     0.02180296
O       1.85292499     6.79269900     1.64035602     0.47122451    -0.69668488     0.98239266
O       1.77087399     3.17157400     1.57210401     0.71528245    -1.20005925     0.80586939
