# total energy = -19077.21763895 eV

CRYSTAL
PRIMVEC
        5.17575250     0.00001323     0.00000000
        0.00001429     5.50856584     0.00000000
        0.00000000     0.00000000     9.26345890
PRIMCOORD
22 1
Ti      1.90918918     3.41323727     3.31415316    -0.02687447     0.01688778    -0.00716952
Ti      3.42511752     2.27180266     5.92632652    -0.02159368    -0.00877004     0.00327790
Ti      4.46167754     2.25011216     1.13497914     0.00218724     0.01236161    -0.01324067
Ti      0.74232245     3.27735520     8.09159208     0.00060344    -0.00870447    -0.00862683
Ti      1.80723286     0.62337337     1.24196561     0.03043185     0.00527231     0.01052224
Ti      3.18858599     4.98608817     8.13791080     0.00455060    -0.00900941    -0.01645378
Ti      0.80914965     0.57365548     5.77168776     0.01345253     0.02222822    -0.01936144
Ti      4.46376092     4.93958972     3.50017754     0.01334197     0.03053238     0.02796513
O       3.46853399     3.50014815     4.53043583     0.00790383     0.01530835     0.02395781
O       0.94941514     1.96330909     0.15004752     0.02129491    -0.00560886    -0.00600996
O       4.13677258     3.61111430     9.13440917     0.00015992    -0.00270326     0.01338877
O       3.55828726     0.82561246     0.07766520    -0.01036901     0.00095388     0.00867876
O       1.54103692     4.75746585     9.09623835    -0.01756218    -0.04383141     0.00813497
O       4.30242711     0.83669215     4.71071032     0.00745594     0.00775136    -0.01621493
O       0.93796235     4.59258773     4.58962226    -0.01284935     0.00186405     0.01130026
O       0.16889753     3.30827882     2.50432571     0.00223635    -0.00257650     0.00369519
O       5.09990758     2.00299852     6.81887649     0.00101919     0.00660440     0.01219963
O       2.73669210     2.08475864     2.17490482    -0.00912691    -0.00125753     0.01530424
O       2.33810983     3.38272886     7.05948790     0.00671135    -0.01292237     0.01029522
O       0.19382335     0.52818009     2.18287215    -0.00303596    -0.00750608    -0.01160802
O       2.47014296     0.65266081     6.67854567     0.00642082    -0.01558603    -0.00916059
O       2.77427524     4.86929706     2.47348218    -0.01635814    -0.00128864    -0.04087541
