# total energy = -39027.24996880 eV

CRYSTAL
PRIMVEC
        5.93200024     0.00000000     0.00000000
        0.00000000     9.29399984     0.00000000
        0.00000000     0.00000000     9.29399984
PRIMCOORD
46 1
Ti      4.51538200     7.20753898     6.72715298    -1.82268862     1.07079390     1.12656244
Ti      4.41261800     6.80024702     2.44049197     2.58440726    -0.57403550     0.74714306
Ti      4.38074502     2.17140503     7.18692202    -1.72580299     0.59480617    -0.53137831
Ti      4.43489102     2.77416802     1.93117602    -1.63815250     0.95301728     0.28321637
Ti      1.46947903     6.77751902     7.28824100     2.83694857     0.59089423    -0.74839596
Ti      1.48588601     7.15701901     2.07914001    -0.75216957    -1.79213902     1.13387620
Ti      1.44151402     2.44520700     6.64777200    -0.72739826     1.05201276     0.32397866
Ti      1.49333598     2.02676400     2.93460298     1.61806935    -0.28144951    -0.72944821
Ti      2.81951798     4.82670798     4.72277397     2.90067390    -0.60486458    -1.02202134
Ti      2.96459701     4.48927203     8.91430902     1.62756367     1.48367106     1.56864553
Ti      3.02544900     9.08050000     4.38879502     0.81501584    -0.76817803    -0.89479000
Ti      2.87662002     9.27622700     0.23174402     1.54217936     2.39126772    -2.39759264
Ti      0.00826898     4.73467702     4.71448499    -1.43368622    -0.67594687    -1.44269511
Ti      0.05696598     4.90536801     9.02711898    -0.28033905    -1.85245506     3.84785040
Ti      0.04560799     9.04848800     4.92582399    -2.07874230    -3.51411003    -0.63009226
Ti      5.92334899     0.06969698     0.02084800    -1.33292645    -0.13601115    -0.05685328
O       4.79185002     5.86367102     5.47892498    -2.60599991     0.09849848     1.41304051
O       4.53123599     4.84031303     1.07171802    -0.72320222     0.92501230     0.26495999
O       4.23388002     9.29295598     5.74549802     1.75377840     3.70873053     1.27466240
O       4.58713801     1.23211498     0.57509999    -0.29532190     0.84552584     0.74254438
O       1.49539098     5.39573001     5.90831400    -0.17729306     0.67425508    -1.08935882
O       1.49091700     5.48659900     0.99904701     0.08479244    -0.17155821    -1.45241543
O       0.93029699     1.21015497     4.64712301     3.11206596     2.85743718     0.24110220
O       1.16475802     0.90315602     1.22013399     1.54465662    -0.37303558    -0.01750176
O       4.19355799     8.53994602     8.48456100     2.12329080    -0.62216400    -0.60067728
O       4.73229599     8.28866699     3.71612702    -1.22274744    -0.17626307    -0.91003613
O       4.65735401     3.60877299     8.36422398    -0.91733550    -0.44531935    -0.11274806
O       4.29571899     4.04433000     3.70408898    -0.24615854    -0.38194831     0.16072383
O       1.67385601     8.30609502     8.54050202    -1.98771236     0.15481363     0.13774510
O       1.43755900     8.08208397     3.88853800     0.24782770     2.07572563    -0.68166192
O       1.46925100     4.19182901     7.96072400    -1.66458937    -2.64422349     0.19640124
O       1.59376699     3.72550399     3.99246201     0.50372095    -0.14108600    -0.76667034
O       3.06776398     6.10817499     8.01585300     1.63908196    -0.31287457     0.12770468
O       2.86445402     6.32365099     3.22521199     0.56728713    -1.93366184     0.92235069
O       2.69839497     1.41335502     7.97116800     0.37773582     1.85468267    -1.45861410
O       3.58290199     1.46937203     2.88253802    -2.42437969    -0.53216559     1.63395441
O       5.73846001     6.30001503     8.04851101    -0.73175834     1.05632733    -0.20359828
O       0.09187602     6.05046202     3.32600898    -0.29289118     0.71836340    -2.34937595
O       0.02583200     1.37368800     7.49452302     1.23687514    -1.51940580     0.84644270
O       2.94312299     7.64502098     6.01763202    -2.81751565    -1.10391512    -0.08886559
O       3.13229201     8.09197102     1.55740098    -0.38232113    -1.41508197     1.48546209
O       3.00271603     3.24967897     6.11104599     0.73190644    -0.75081845    -0.23242498
O       0.32967002     7.69772502     6.16458402    -0.19087697     1.89391437     0.01368676
O       5.87768501     7.86808798     1.37738298    -0.81674876    -0.14186915    -0.63464440
O       5.67598101     3.37407801     5.93599400     0.70239248    -2.48931626     1.39346438
O       0.20430602     2.95894502     2.16087001     0.73848846     0.35414748    -0.83365814
