# total energy = -19074.98236793 eV

CRYSTAL
PRIMVEC
        5.17600016     0.00000000     0.00000000
        0.00000000     5.50899976     0.00000000
        0.00000000     0.00000000     9.26300011
PRIMCOORD
22 1
Ti      1.81966101     3.38424399     3.31792199     0.73597007     0.29800819    -1.00933937
Ti      3.51611300     2.22951001     5.85921202    -0.99197645     0.22013331     0.19537229
Ti      4.48647702     2.29125600     1.21582098    -1.35466539    -0.98534171    -0.79437733
Ti      0.70429999     3.21965700     8.16612600     0.33083425     1.65542672    -0.61570282
Ti      1.89261000     0.59187899     1.23691700     0.43388873     0.09059054    -0.90045748
Ti      3.19510799     4.96319200     7.96114798    -0.27849711     0.22205778     1.86694709
Ti      0.60857702     0.17087001     6.04002903     0.61024642     1.06677218    -1.00344383
Ti      4.42914701     4.88876502     3.39761598    -0.28288264     0.72959707    -0.44525584
O       3.47040399     3.51362899     4.38759199     0.54530084    -0.84274159     1.64264422
O       0.99644801     2.07742098     0.18512001     0.27496879    -1.59715342     0.41300674
O       4.30720902     3.70077702     9.07652900    -0.68897054     0.04033214    -0.31165639
O       3.61550101     0.86143198     0.17013800    -0.81962403    -0.09101863    -0.86789034
O       1.70324699     4.68626201     9.23686399    -0.35451849     0.46501606    -1.05129233
O       4.45201001     0.76205699     4.80386298    -1.10266557     0.54699674     0.32592704
O       1.03556199     4.72091201     4.34077298    -0.95677340     0.22090618     2.51781747
O       0.18544202     3.61480498     2.31067299    -0.47497266    -0.29858618     0.45458098
O       5.04760202     2.11953100     6.82063400     0.58395431    -1.09830137    -0.17414345
O       2.70598401     2.24654502     2.11242801     0.75207546    -1.03486581    -0.00064612
O       2.29267001     3.40389498     7.10614200     1.11196293     0.35714256    -1.19651832
O       0.15289698     0.84819202     2.14470697     0.37322430    -0.65362146     0.89750843
O       2.32480102     0.71837500     6.74959301     0.19164496    -0.05162777    -0.70545929
O       2.64329000     4.82533101     2.37980302     1.36147496     0.74027821     0.76237839
