# total energy = -19940.27081620 eV

CRYSTAL
PRIMVEC
        5.77969231     0.00000000     0.00000000
        2.36592724     5.67814893     0.00000000
        0.00000000     0.00000000    10.56613303
PRIMCOORD
24 1
Ti      3.49690681     3.36486590     3.91995999     0.82670176    -2.94522547     0.92911038
Ti      4.64871283     2.31328318     6.64617315    -0.82670176     2.94522547    -0.92911038
Ti      5.94849309     2.31328511     1.36306434    -2.10091474    -0.75751798     0.63603048
Ti      2.19712659     3.36486420     9.20306886     2.10091474     0.75751798    -0.63603048
Ti      2.31394331     0.52579142     1.36310670     0.82670176    -2.94522547    -0.92911038
Ti      5.83167637     5.15235784     9.20302650    -0.82670176     2.94522547     0.92911038
Ti      1.01416295     0.52578933     6.64613074     2.10091474     0.75751798     0.63603048
Ti      7.13145673     5.15235993     3.92000235    -2.10091474    -0.75751798    -0.63603048
O       2.66239230     1.99937282     5.39181682     1.52839053     2.02770872    -0.98610585
O       5.48322729     3.67877627     5.17431632    -1.52839053    -2.02770872     0.98610585
O       1.89366362     1.99939577     0.10878427     0.18082190    -0.83104564     1.24702226
O       6.25195610     3.67875342    10.45734853    -0.18082190     0.83104564    -1.24702226
O       4.30026376     0.83970167     0.10874996    -1.52839053    -2.02770872    -0.98610585
O       3.84535588     4.83844741    10.45738283     1.52839053     2.02770872     0.98610585
O       5.06899250     0.83967878     5.39185107    -0.18082190     0.83104564     1.24702226
O       3.07662704     4.83847039     5.17428202     0.18082190    -0.83104564    -1.24702226
O       1.64908068     3.45377222     2.85417615     0.55258221     1.98551433     1.86507044
O       6.49653890     2.22437688     7.71195699    -0.55258221    -1.98551433    -1.86507044
O       4.02666136     2.22432403     2.42892403     1.17687843     1.36005211     0.60234799
O       4.11895822     3.45382506     8.13720894    -1.17687843    -1.36005211    -0.60234799
O       0.46611714     0.61469756     2.42889025     0.55258221     1.98551433    -1.86507044
O       7.67950250     5.06345152     8.13724267    -0.55258221    -1.98551433     1.86507044
O       2.93599469     0.61475046     7.71199066    -1.17687843    -1.36005211     0.60234799
O       5.20962489     5.06339863     2.85414243     1.17687843     1.36005211    -0.60234799
