# total energy = -4984.59605770 eV

CRYSTAL
PRIMVEC
        2.93480017     0.00000000     0.00000000
        1.76861233     4.24466929     0.00000000
       -0.00001127    -0.00006109     4.69697293
PRIMCOORD
6 1
Ti      2.35170053     2.12230396     2.34848641     0.00000000     0.00000000     0.00000000
Ti      0.00000000     0.00000000     0.00000000     0.00000000     0.00000000     0.00000000
O       1.81207430     0.82721152     0.91537082    -4.77757990     2.23405602     2.65312645
O       2.89132675     3.41739639     3.78160195     4.77757990    -2.23405602    -2.65312645
O       0.53962139     1.29506778     3.26385826     4.77698752    -2.23352843     2.65253638
O       1.22897964     2.94954031     1.43311456    -4.77698752     2.23352843    -2.65253638
