# total energy = -4989.68228587 eV

CRYSTAL
PRIMVEC
        3.66127557     0.00000000     0.00000000
        0.54611137     3.62031783     0.00000000
       -2.10372646    -1.81018730     4.68587454
PRIMCOORD
6 1
Ti      0.40945039     2.71537675     1.17146838     0.00173344    -0.00173344     0.00000000
Ti      1.69421047    -0.90524590     3.51440565    -0.00173344     0.00173344     0.00000000
O       0.13656635     0.90507404     0.76329055     0.00002931     0.00057876     0.43677917
O       1.96709435     0.90505667     3.92258348    -0.00002931    -0.00057876    -0.43677917
O      -0.13654395    -0.90505477     3.10622782     0.00057876     0.00002931     0.43677917
O       2.24020460     2.71518548     1.57964621    -0.00057876    -0.00002931    -0.43677917
