# total energy = -4989.57931822 eV

CRYSTAL
PRIMVEC
        3.11515331     0.00000000     0.00000000
        0.00000000     4.88097821     0.00000000
        0.00000000    -0.00006334     4.88097821
PRIMCOORD
6 1
Ti      1.55757660     2.44045738     2.44048905     0.00000000     0.00000000     0.00000000
Ti      0.00000000     0.00000000     0.00000000     0.00000000     0.00000000     0.00000000
O       1.55757660     0.95121840     0.95123075     0.00000000    -0.44508126    -0.44508126
O       1.55757660     3.92969635     3.92974735     0.00000000     0.44508126     0.44508126
O       0.00000000     1.48921329     3.39172079     0.00000000     0.44500619    -0.44500619
O       0.00000000     3.39170146     1.48925731     0.00000000    -0.44500619     0.44500619
