# total energy = -19517.56600260 eV

CRYSTAL
PRIMVEC
        5.17600016     0.00000000     0.00000000
        0.00000000     5.50899976     0.00000000
        0.00000000     0.00000000     9.26300011
PRIMCOORD
23 1
Ti      1.89445403     3.30569598     3.40872902    -1.13844839    -0.87651022     2.42497130
Ti      3.35322399     2.27156902     5.84202201    -0.55533149     0.29034322    -2.42444499
Ti      4.32137398     2.08300200     1.56154899     0.78355786    -1.37099885    -0.83640074
Ti      0.91367199     3.28724199     7.84164398    -0.27777232     1.02096616     0.09934695
Ti      1.99506898     0.26517199     1.28179700    -0.95016181    -0.00717724     0.04798272
Ti      3.26871898     5.23011398     7.89448302     0.52276486    -0.33684781     0.91354903
Ti      0.68219197     0.60544900     5.90659899    -0.41270181    -0.31706985    -3.13936620
Ti      4.45882798     4.85718500     3.36769598     1.27901708     0.60804504     2.60774621
O       1.57544000     2.08115501     4.76923002     0.38276310    -1.02199100     0.85289848
O       3.48775402     3.58391600     4.56479800     0.67370641     0.84371373    -1.24187903
O       0.17265000     2.58796097     0.05626101     0.07054827    -0.06797614     0.04779091
O       3.39638299     0.89458298     0.20104899     0.13785746    -0.17114169    -0.91141193
O       1.79854901     4.59754100     9.02596802     0.04191311     0.45260431     0.41766249
O       4.33437698     0.75913001     4.73759798    -1.25210482     0.35390965     0.19223040
O       0.97922102     4.80372799     4.34248000     0.65241073    -0.47332741     0.67974439
O       0.11307698     3.15492698     2.67746400     0.18976548     1.10718197    -0.17424270
O       4.98425299     2.14872502     6.69262697     0.56708632     0.11004480     1.09465246
O       2.59673902     1.77965601     2.30940800    -0.02232593     0.85590385     0.17463479
O       2.64936601     3.70672598     6.94071199    -0.70587015    -1.34390584     0.60131055
O       0.16023799     0.59583898     2.20331600     0.21604577     0.05310873    -1.77840263
O       5.04227098     4.83201701     7.22658301     0.26931570     0.06954631     0.25540860
O       2.43018302     0.89165800     6.83117500    -0.88256183     0.18660277     0.42893756
O       2.90772897     4.46779097     2.20927501     0.41052614     0.03497576    -0.33271861
