# total energy = -19909.33588491 eV

CRYSTAL
PRIMVEC
        7.73257437     0.00000000     0.00000000
        0.00003043     5.48653157     0.00000000
        0.00000000     0.00000000    12.01354851
PRIMCOORD
24 1
Ti      2.80270445     3.25131351     4.45694081     0.57292993    -0.68240009     1.58720505
Ti      4.92990049     2.23521806     7.55660783    -0.57292993     0.68240009    -1.58720505
Ti      6.66885834     2.23521998     1.54978548     0.57242574     0.68234481    -1.58762722
Ti      1.06374660     3.25131186    10.46376323    -0.57242574    -0.68234481     1.58762722
Ti      2.80268924     0.50804785     1.54983364     0.57292993    -0.68240009    -1.58720505
Ti      4.92991570     4.97848392    10.46371507    -0.57292993     0.68240009     1.58720505
Ti      1.06373138     0.50804581     7.55655961    -0.57242574    -0.68234481    -1.58762722
Ti      6.66887356     4.97848596     4.45698897     0.57242574     0.68234481     1.58762722
O       2.44741939     1.93190106     6.13042187     0.72786441     1.47717285    -1.59748149
O       5.28518555     3.55463058     5.88312678    -0.72786441    -1.47717285     1.59748149
O       1.41893460     1.93192317     0.12368622    -0.72739569     1.47737442    -1.59834616
O       6.31367047     3.55460847    11.88986203     0.72739569    -1.47737442     1.59834616
O       5.28517040     0.81136472     0.12364722    -0.72786441    -1.47717285    -1.59748149
O       2.44743454     4.67516685    11.88990103     0.72786441     1.47717285     1.59748149
O       6.31365525     0.81134268     6.13046080     0.72739569    -1.47737442    -1.59834616
O       1.41894962     4.67518902     5.88308777    -0.72739569     1.47737442     1.59834616
O       0.28096097     3.33721952     3.24515919    -1.88690297     0.54413099     0.16083388
O       7.45164396     2.14931212     8.76838946     1.88690297    -0.54413099    -0.16083388
O       4.14725681     2.14926096     2.76165335    -1.88731743    -0.54398341    -0.16090818
O       3.58534813     3.33727068     9.25189510     1.88731743     0.54398341     0.16090818
O       0.28094576     0.59395366     2.76161494    -1.88690297     0.54413099    -0.16083388
O       7.45165918     4.89257791     9.25193344     1.88690297    -0.54413099     0.16083388
O       3.58533298     0.59400482     8.76842774     1.88731743     0.54398341    -0.16090818
O       4.14727196     4.89252681     3.24512084    -1.88731743    -0.54398341     0.16090818
