# total energy = -19074.59485915 eV

CRYSTAL
PRIMVEC
        5.93400000     0.00000000     0.00000000
        0.00000000     9.29699974     0.00000000
        0.00000000     0.00000000     4.64899994
PRIMCOORD
22 1
Ti      4.45401601     6.88046902     2.31483503    -0.72786466     0.03103837     0.57954152
Ti      4.35711302     2.35600697     2.30991299     1.06998915     0.38882396    -0.24259267
Ti      1.48203201     7.04169203     2.40232898     0.60353969    -1.27794673     0.26898788
Ti      1.52225202     2.42909403     2.27824702    -0.74835662     0.43186013     0.01846901
Ti      3.02228902     4.63122398     0.00999600    -0.49144238    -0.32122938    -1.24710557
Ti      3.00406098     0.01158898     4.62242699    -0.39674939    -0.27194363    -0.04038305
Ti      5.89444300     4.62840198     4.61704600     0.12144147    -0.82004029    -0.32196806
Ti      0.00506401     9.21583898     0.13567300    -0.15742536     0.88979049    -0.49062117
O       4.34544101     5.62012598     0.80830798     1.15055392     0.21830757     1.74694903
O       4.40580400     0.91606800     0.81292601     0.85685901     0.46759565     0.78038795
O       1.52398301     0.91820497     0.95605898    -0.29469764    -0.34112947    -0.75435115
O       4.45297798     8.33806902     3.80978298     0.09302255     0.23744866    -1.16412935
O       4.43367799     3.80533901     3.63963001     0.20102152    -0.87716456    -0.19448269
O       1.49632699     8.28611800     3.59221800    -0.45863818     2.99552193     2.36598349
O       1.48635798     3.73408502     3.72969597    -0.27228250     0.02501736    -0.08322484
O       2.92800001     6.06512499     3.38793098     0.06229991    -0.03880799    -1.28215949
O       3.01730999     1.56109501     3.24334202    -0.49144958    -1.80938264     0.95133398
O       0.01836197     6.04667898     3.31876597    -0.35590046     0.19710470    -0.91788237
O       2.88545299     7.75560299     1.43631401     1.00373334     0.73297473    -1.19064386
O       2.99294800     3.12773399     1.36767702     0.09503264     1.64238428    -1.33761769
O       0.05646702     7.93797202     1.30469000    -0.47339812    -2.17185767     1.82040445
O       0.04937700     3.27416898     1.34044000    -0.38928830    -0.32836496     0.73510463
