# total energy = -4987.96074329 eV

CRYSTAL
PRIMVEC
        3.00000362     0.00000000     0.00000000
        1.37913585     4.49368564     0.00000000
       -0.00000918    -0.00006160     4.75555031
PRIMCOORD
6 1
Ti      2.18956520     2.24681206     2.37777516     0.00000000     0.00000000     0.00000000
Ti      0.00000000     0.00000000     0.00000000     0.00000000     0.00000000     0.00000000
O       1.76877329     0.87574123     0.92678670    -1.88946945     0.94455346     0.90440104
O       2.61035716     3.61788289     3.82876356     1.88946945    -0.94455346    -0.90440104
O       0.42078814     1.37104589     3.30456291     1.88902182    -0.94443545     0.90383926
O       0.95833872     3.12257801     1.45098741    -1.88902182     0.94443545    -0.90383926
