# total energy = -4988.36373182 eV

CRYSTAL
PRIMVEC
        2.91266827     0.00000000     0.00000000
        0.00000000     4.12907531     0.00000000
        0.00000000    -0.00005648     4.35728797
PRIMCOORD
6 1
Ti      1.45633413     2.06450927     2.17864399     0.00000000     0.00000000     0.00000000
Ti      0.00000000     0.00000000     0.00000000     0.00000000     0.00000000     0.00000000
O       1.45633413     0.80468490     0.84917124     0.00000000     0.41232720     0.28409543
O       1.45633413     3.32433359     3.50811668     0.00000000    -0.41232720    -0.28409543
O       0.00000000     1.25980149     3.02781611    -0.00000000    -0.41232102     0.28401290
O       0.00000000     2.86921704     1.32947181    -0.00000000     0.41232102    -0.28401290
