# total energy = -4981.54645205 eV

CRYSTAL
PRIMVEC
        4.58279359     0.00000000     0.00000000
       -0.00001020     4.58279359     0.00000000
       -2.29143274    -2.29143784     5.84866386
PRIMCOORD
6 1
Ti     -0.00020181     3.43726877     1.46216580    -0.00120945     0.00120945     0.00000000
Ti      2.29155234    -1.14591314     4.38649767     0.00120945    -0.00120945     0.00000000
O       0.00004578     1.14569061     0.95269949    -0.00045431    -0.00254745    -1.32538129
O       2.29130462     1.14566489     4.89596405     0.00045431     0.00254745     1.32538129
O      -0.00002588    -1.14567072     3.87703135    -0.00254745    -0.00045431    -1.32538129
O       2.29137622     3.43702616     1.97163219     0.00254745     0.00045431     1.32538129
