# total energy = -19960.73195093 eV

CRYSTAL
PRIMVEC
        5.93400000     0.00000000     0.00000000
        0.00000000     9.29699974     0.00000000
        0.00000000     0.00000000     4.64899994
PRIMCOORD
24 1
Ti      4.45357098     6.84539198     2.28904901    -0.56577300     1.18327611     0.57521847
Ti      4.43977400     2.31820599     2.34044302     0.17503100    -0.31252876     0.83688051
Ti      1.48645001     7.01820899     2.35532000     0.80952679     0.50191809    -0.10323574
Ti      1.45000599     2.42340198     2.31805602    -0.12575142    -1.44044128     0.17454814
Ti      2.94955499     4.67174599     0.03580397     0.13981099    -0.57381902    -0.24565640
Ti      3.01225598     9.28516999     4.60344900     0.00952388    -0.34184963    -0.29590194
Ti      0.02221899     4.65823800     0.02249099    -0.42858994    -0.27077120    -0.28267207
Ti      5.92750001     9.23451899     0.10770101     0.24948786     0.39277112    -0.87164312
O       4.35779000     5.60221100     0.81381000     0.88238133    -0.39624854     0.29997689
O       4.43821102     0.90937602     0.75080700     0.17604067     0.43709798     0.95368757
O       1.52608998     5.61181599     0.91124502    -0.40919508    -0.20937812    -0.25620178
O       1.45972602     0.92334598     0.98017698     0.12415219    -0.43242012    -1.00170293
O       4.48052398     8.37805001     3.60232402    -0.24640819     0.41837623     1.24924781
O       4.49335500     3.69275099     3.67078399    -0.36407143     0.71821942     1.04005918
O       1.43645101     8.36502500     3.73984898     0.03221439    -0.01950774    -0.30422769
O       1.43599100     3.69907000     3.87510298     0.48649738    -0.05310281    -0.84508978
O       2.95658003     6.20247099     3.26493600    -0.71971940    -1.18187974    -0.03446976
O       3.01916201     1.41401400     3.24382199    -0.38472716     0.46244341    -0.67006367
O       5.85836999     5.90808799     3.20355901     0.94450872     1.15809060    -0.60344276
O       5.91863698     1.40059502     3.10918802     0.53096642     0.32524081     0.24505450
O       3.02641899     7.84716002     1.34499098    -1.13563021     0.09770761     0.29710625
O       3.05387302     3.27748697     1.36915300    -0.74211938    -0.08677296     0.28043495
O       5.83160500     7.86209499     1.39970103     1.05168803    -0.24308144     0.06728322
O       0.08417702     3.37467101     1.51118200    -0.48984444    -0.13334003    -0.50518982
