# total energy = -19930.32231645 eV

CRYSTAL
PRIMVEC
        5.71403086     0.00000000     0.00000000
        0.00002249     4.05430446     0.00000000
        0.00000000     0.00000000     8.87748163
PRIMCOORD
24 1
Ti      2.07107478     2.40257705     3.29348237    -0.69785242     2.86424187    -4.94075837
Ti      3.64297867     1.65172740     5.58399936     0.69785242    -2.86424187     4.94075837
Ti      4.92799170     1.65172882     1.14522301    -0.69466579    -2.86509084     4.94811044
Ti      0.78606174     2.40257583     7.73225877     0.69466579     2.86509084    -4.94811044
Ti      2.07106353     0.37542492     1.14525860    -0.69877185     2.86482242     4.94528402
Ti      3.64298992     3.67887968     7.73222318     0.69877185    -2.86482242    -4.94528402
Ti      0.78605050     0.37542341     5.58396373     0.69444288     2.86479028     4.94412985
Ti      4.92800295     3.67888119     3.29351795    -0.69444288    -2.86479028    -4.94412985
O       1.80853481     1.42758954     4.53011094     1.93859810    -3.13289988     4.14889532
O       3.90551864     2.62671496     4.34737079    -1.93859810     3.13289988    -4.14889532
O       1.04852998     1.42760588     0.09139865    -1.93832171    -3.13443765     4.15054160
O       4.66552356     2.62669863     8.78608278     1.93832171     3.13443765    -4.15054160
O       3.90550744     0.59956269     0.09136983    -1.93934758     3.13285154     4.14967745
O       1.80854601     3.45474177     8.78611161     1.93934758    -3.13285154    -4.14967745
O       4.66551232     0.59954640     4.53013971     1.93864336     3.13411884     4.14986051
O       1.04854108     3.45475815     4.34734197    -1.93864336    -3.13411884    -4.14986051
O       0.20761775     2.46605779     2.39802928     2.91736988    -0.85316099     1.92332935
O       5.50643570     1.58824671     6.47945245    -2.91736988     0.85316099    -1.92332935
O       3.06463957     1.58820890     2.04073982     2.91926092     0.85320367    -1.92352501
O       2.64941388     2.46609560     6.83674176    -2.91926092    -0.85320367     1.92352501
O       0.20760650     0.43890552     2.04071144     2.91715699    -0.85284269    -1.92266214
O       5.50644694     3.61539894     6.83677009    -2.91715699     0.85284269     1.92266214
O       2.64940268     0.43894332     6.47948074    -2.91906063    -0.85373641    -1.92284315
O       3.06465077     3.61536118     2.39800094     2.91906063     0.85373641     1.92284315
