# total energy = -19912.82164747 eV

CRYSTAL
PRIMVEC
        7.63941083     0.00000000     0.00000000
        0.00003006     5.42042878     0.00000000
        0.00000000     0.00000000    11.86880696
PRIMCOORD
24 1
Ti      2.76893693     3.21214106     4.40324273     0.57471582    -0.64361549     1.52979332
Ti      4.87050409     2.20828773     7.46556437    -0.57471582     0.64361549    -1.52979332
Ti      6.58851065     2.20828962     1.53111337     0.57366141     0.64295318    -1.52996944
Ti      1.05093037     3.21213943    10.33769379    -0.57366141    -0.64295318     1.52996944
Ti      2.76892190     0.50192680     1.53116095     0.57471582    -0.64361549    -1.52979332
Ti      4.87051913     4.91850218    10.33764621    -0.57471582     0.64361549     1.52979332
Ti      1.05091534     0.50192478     7.46551672    -0.57366141    -0.64295318    -1.52996944
Ti      6.58852568     4.91850420     4.40329031     0.57366141     0.64295318     1.52996944
O       2.41793241     1.90862514     6.05656136     0.74984529     1.44873361    -1.55561492
O       5.22150861     3.51180370     5.81224573    -0.74984529    -1.44873361     1.55561492
O       1.40183900     1.90864699     0.12219602    -0.75011654     1.44929694    -1.55646981
O       6.23760215     3.51178186    11.74661068     0.75011654    -1.44929694     1.55646981
O       5.22149365     0.80158925     0.12215749    -0.74984529    -1.44873361    -1.55561492
O       2.41794738     4.61883954    11.74664921     0.74984529     1.44873361     1.55561492
O       6.23758712     0.80156747     6.05659983     0.75011654    -1.44929694    -1.55646981
O       1.40185384     4.61886145     5.81220720    -0.75011654     1.44929694     1.55646981
O       0.27757590     3.29701205     3.20606088    -1.88351631     0.54310332     0.18654003
O       7.36186512     2.12341680     8.66274621     1.88351631    -0.54310332    -0.18654003
O       4.09728986     2.12336625     2.72838042    -1.88375285    -0.54298814    -0.18670175
O       3.54215116     3.29706260     9.14042648     1.88375285     0.54298814     0.18670175
O       0.27756087     0.58679760     2.72834247    -1.88351631     0.54310332    -0.18654003
O       7.36188015     4.83363119     9.14046436     1.88351631    -0.54310332     0.18654003
O       3.54213619     0.58684814     8.66278403     1.88375285     0.54298814    -0.18670175
O       4.09730483     4.83358071     3.20602300    -1.88375285    -0.54298814     0.18670175
