# total energy = -19073.26020806 eV

CRYSTAL
PRIMVEC
        5.93400000     0.00000000     0.00000000
        0.00000000     9.29699974     0.00000000
        0.00000000     0.00000000     4.64899994
PRIMCOORD
22 1
Ti      4.46634701     6.95160002     2.41237499    -0.52751523     0.57676165     0.58996812
Ti      4.39368102     2.29934098     2.22586700     0.77357787    -1.25792117     0.61986441
Ti      1.52008001     7.19773698     2.44788802     0.31847624    -0.06868653     0.91188784
Ti      1.63778300     2.42549700     2.16019102    -1.46448728     0.61467952     1.18945473
Ti      3.00395700     4.60537002     4.59819401    -1.01574271     0.72661691    -0.28853779
Ti      2.92216398     0.16306999     0.10046298     1.88971370    -0.82221416    -0.37932810
Ti      5.76467699     4.45903902     4.48569399     1.30605918     0.24307913    -0.24174909
Ti      0.03690202     9.17851500     0.03937698    -1.97395284    -0.15655453    -0.49916572
O       4.49104001     5.51101598     0.68765700     0.47411854     0.52276280     2.32151444
O       4.51332101     0.74126900     1.12046800    -0.29589475     0.92256512    -0.53531056
O       1.40909202     0.87763602     0.97623598    -0.12992612     0.96849224     0.09475779
O       4.31006102     8.20878102     3.81514699     0.81060408     1.63191423     0.34044015
O       4.28840798     3.86408398     3.50353498     1.46566664    -1.40621089    -0.52214008
O       1.52968601     8.26560503     4.04395402     0.66455302     0.41365260    -1.68915627
O       1.63262998     3.75880998     3.64870302    -2.11635164    -0.14037971    -0.43949914
O       2.92269802     5.99568201     3.29371800    -0.45113930     1.17080651    -1.39350089
O       2.90609800     1.50623600     3.36470602    -0.00319177    -0.75997030    -0.27143198
O       0.06265099     6.26957098     3.39430597    -0.01921206    -1.82465808    -0.93868826
O       2.98204398     8.01110601     1.59022399    -0.35759533    -0.91138725    -0.25766937
O       3.07118500     2.98076602     1.18756900    -0.17732905     1.62108243    -0.84249811
O       0.03222599     8.08918500     1.40902402     0.04147422    -3.07476850     2.70035583
O       5.86241798     3.04976899     1.37199801     0.78809483     1.01033773    -0.46956743
