# total energy = -19073.44018247 eV

CRYSTAL
PRIMVEC
        5.17600016     0.00000000     0.00000000
        0.00000000     5.50899976     0.00000000
        0.00000000     0.00000000     9.26300011
PRIMCOORD
22 1
Ti      1.76004798     3.39228499     3.35428700     1.84686651     0.09860596    -1.58697905
Ti      3.88764099     2.24957101     5.89264401    -0.49644961    -0.03785925    -0.62377531
Ti      4.25928498     2.13217902     1.28901799     0.30717212     0.48935825    -0.87695759
Ti      0.67421600     3.25499001     8.19989899     0.11161497     0.47842283    -0.55086574
Ti      1.68181600     0.53988399     1.39742101     0.67393961    -0.88893559    -2.22316817
Ti      3.16668599     5.15637800     7.95172100     0.02901234    -0.37801273     2.11576106
Ti      1.05272400     5.48992398     6.01270999    -0.66591417     2.31167997    -0.51013714
Ti      4.41284200     5.03976999     3.41075899    -0.90556961    -1.68884259     1.01424375
O       3.46714997     3.56740800     4.39480902     0.26834819    -0.95729817     1.42484677
O       0.84431098     1.93307502     0.24542500    -0.99599585     0.30600767    -0.79505018
O       4.04662499     3.58013800     8.60810902     1.27540571    -1.08696280     0.70561356
O       3.31251999     0.82842900     0.35891600     0.86924196    -0.13014209    -2.43693413
O       1.70275898     4.62117401     9.08202101    -1.45056192     0.03257872     0.19013469
O       4.24707802     0.95715300     4.61268600     0.02124400    -0.36377549     0.61236732
O       1.18049200     4.89548298     4.18055600    -2.27710016     1.32663264     2.78741985
O       0.12471300     3.39092601     2.39552598    -0.56204053    -0.06599870     0.25631028
O       0.41472002     1.97382299     6.62930203    -1.01973974    -0.42103090    -0.18168733
O       2.50848802     1.84523398     2.33436601     0.90150186     1.63346564     1.55071902
O       1.97417199     4.11310701     6.73865502     0.36981707    -1.01896661     0.22258588
O       5.12313498     0.61971001     2.09834602    -0.39017173     0.23748903     0.04055711
O       2.62223298     1.05469000     6.91671100     0.85200837     1.07013698    -1.56116825
O       2.63684499     4.69903900     2.29097501     1.23737111    -0.94655327     0.42616334
