# total energy = -19072.17955101 eV

CRYSTAL
PRIMVEC
        5.17600016     0.00000000     0.00000000
        0.00000000     5.50899976     0.00000000
        0.00000000     0.00000000     9.26300011
PRIMCOORD
22 1
Ti      1.80344099     3.31546999     3.34124802    -0.58433946     0.72055193     0.47408589
Ti      3.59900697     2.31272498     5.88738102     0.57388149     1.41221622    -1.39916632
Ti      4.30893302     2.04494600     1.66678102     0.43545325     2.64700234    -0.95794583
Ti      1.09314102     3.03878300     8.13963502    -1.10089433     1.43129458    -1.25199349
Ti      1.85506302     0.37873602     1.18103398    -0.50434624     0.16293498    -1.10270387
Ti      3.51351998     5.30743599     7.82867702    -1.61765849    -0.90336977     0.80589407
Ti      1.08230898     5.44949801     6.16716502    -0.14494985    -1.15711435     1.34734803
Ti      4.20132298     5.14360001     3.55843898    -0.04945622    -0.64306631     1.69928950
O       3.08368501     3.78310102     4.61136100     1.61893813     0.28731960     1.08734333
O       0.79140903     2.56491102     0.54047201    -0.83831492    -1.21552907     0.38499070
O       4.75870400     3.71372202     7.13321598    -0.34608090    -0.28079439     0.23214139
O       3.40991199     0.84279600     0.23417803     0.70303088     0.49334243    -1.05472373
O       1.42922700     5.20383001     8.65069901    -0.44435004    -0.35105650     1.80088617
O       3.76395301     1.33363801     4.27488100     0.71702437    -1.27706587     1.53648128
O       0.74491101     4.94176001     4.48517900    -0.00252174     0.45865515     0.11805842
O       0.01311301     3.36496400     2.86651898    -1.03871886    -0.56507161    -0.67967523
O       4.78822801     0.83042902     6.85851298     0.56103523     1.24423287    -0.14270014
O       2.54237299     1.98153501     2.32328202    -0.95957771    -0.49076721    -0.77431217
O       2.14790400     3.96803598     6.88690800     2.00360050    -0.84633934    -0.82317755
O       5.02658299     0.56429202     2.08260898     3.11952525    -2.43771112     0.38862239
O       2.45477500     1.12419600     6.73651101    -0.97149323     0.44921534     0.54237544
O       2.74659302     4.65140098     2.41849598    -1.12978686     0.86112010    -2.23111802
