# total energy = -4986.44651576 eV

CRYSTAL
PRIMVEC
        3.67384098     0.00000000     0.00000000
       -0.00000742     3.32395173     0.00000000
       -1.83694641    -1.66200923     4.47656146
PRIMCOORD
6 1
Ti     -0.00016059     2.49308869     1.11914015     0.00070834    -0.00463596     4.20028912
Ti      1.83704745    -0.83114610     3.35742078    -0.00070834     0.00463596    -4.20028912
O       0.00003733     0.83098167     0.72919521     0.00139482     0.00554716     0.76626256
O       1.83684939     0.83096083     3.74736582    -0.00139482    -0.00554716    -0.76626256
O      -0.00001884    -0.83097005     2.96747584     0.00123413     0.00015067     2.17882125
O       1.83690555     2.49291251     1.50908518    -0.00123413    -0.00015067    -2.17882125
