# total energy = -19939.41397124 eV

CRYSTAL
PRIMVEC
        6.86304794     0.00000000     0.00000000
        0.00002701     4.86957220     0.00000000
        0.00000000     0.00000000    10.66262739
PRIMCOORD
24 1
Ti      2.48754090     2.88570396     3.95575871     0.47531102    -0.02588793     0.61802452
Ti      4.37553417     1.98386824     6.70686880    -0.47531102     0.02588793    -0.61802452
Ti      5.91894656     1.98386994     1.37551242     0.47697298     0.02553466    -0.61782449
Ti      0.94412851     2.88570249     9.28711515    -0.47697298    -0.02553466     0.61782449
Ti      2.48752739     0.45091797     1.37555516     0.47553933    -0.02488495    -0.61757021
Ti      4.37554767     4.41865440     9.28707241    -0.47553933     0.02488495     0.61757021
Ti      0.94411500     0.45091616     6.70682600    -0.47708919    -0.02459441    -0.61785277
Ti      5.91896006     4.41865621     3.95580146     0.47708919     0.02459441     0.61785277
O       2.17220757     1.71465917     5.44105716     0.98240191     0.80410973    -0.71384212
O       4.69086749     3.15491308     5.22157035    -0.98240191    -0.80410973     0.71384212
O       1.25937569     1.71467880     0.10977773    -0.98191829     0.80433676    -0.71502354
O       5.60369949     3.15489346    10.55284943     0.98191829    -0.80433676     0.71502354
O       4.69085405     0.72012692     0.10974311    -0.98234972    -0.80418326    -0.71404524
O       2.17222102     4.14944527    10.55288405     0.98234972     0.80418326     0.71404524
O       5.60368599     0.72010736     5.44109172     0.98215740    -0.80450439    -0.71526137
O       1.25938902     4.14946496     5.22153573    -0.98215740     0.80450439     0.71526137
O       0.24936697     2.96194985     2.88024169    -1.43737961     0.39936343     0.51300186
O       6.61370810     1.90762241     7.78238582     1.43737961    -0.39936343    -0.51300186
O       3.68089861     1.90757700     2.45110598    -1.43666536    -0.39928913    -0.51274398
O       3.18217645     2.96199526     8.21152135     1.43666536     0.39928913     0.51274398
O       0.24935346     0.52716369     2.45107189    -1.43730248     0.39915440    -0.51281983
O       6.61372160     4.34240851     8.21155538     1.43730248    -0.39915440     0.51281983
O       3.18216300     0.52720910     7.78241980     1.43656534     0.39915183    -0.51316127
O       3.68091206     4.34236316     2.88020766    -1.43656534    -0.39915183     0.51316127
