# total energy = -19517.46490695 eV

CRYSTAL
PRIMVEC
        5.93400000     0.00000000     0.00000000
        0.00000000     9.29699974     0.00000000
        0.00000000     0.00000000     4.64899994
PRIMCOORD
23 1
Ti      4.59169799     6.95284999     2.34145100    -0.54981930     1.11074063    -0.85653608
Ti      4.41620799     2.32530702     2.35883601     0.72401855    -0.41370711     0.11736010
Ti      1.54668101     7.13981101     2.28706597    -0.64110327     0.30877238    -0.66541717
Ti      1.46303000     2.31086800     2.29405000    -1.18234537    -0.24473337     0.61341145
Ti      2.95922602     4.40510898     0.05025602    -0.84746420     1.88434678    -0.60484762
Ti      3.02879801     0.05396698     4.64431599    -0.54715410    -0.54915956    -0.01344019
Ti      5.90889001     4.64532301     0.04300899     0.99210140     0.73075535     0.09485060
Ti      0.02729898     0.09338301     0.08886902    -0.68245999    -0.47797031    -0.71876218
O       4.46783601     5.51826899     0.89939902    -0.56284606     0.25477431    -0.23201849
O       4.30096700     0.88536302     1.02866501     0.98828743     0.54852141    -0.78464030
O       1.52733101     5.57288199     0.78637300     0.21798155     0.15305294    -0.04979277
O       1.46343498     0.83686398     0.96109500    -0.17561258     0.40677978    -0.29578753
O       4.30589502     8.45932999     3.73561202     0.82682826    -1.21265766    -0.42738204
O       4.47860201     3.67713301     3.76649898    -0.56381819     0.15671317    -1.04472008
O       1.16884301     8.32412901     3.72185198     1.86651977     0.16927352     0.02584525
O       1.52327799     3.70291998     3.61150799     0.11501269     0.89984402     0.62005492
O       2.85938900     1.34618702     3.14761201     0.63064505     0.32406685     0.80376006
O       0.02408799     6.11934899     3.09403498     0.70344740    -1.70725813     1.36821383
O       0.00855098     1.42274098     3.22490798    -0.78714944     0.20887830     0.22871719
O       3.07355302     7.93040399     1.44605298    -1.38803164    -0.85691378     0.33328014
O       2.83558899     3.26733899     1.35482299     1.17183469    -1.27925157     1.13597319
O       5.92383102     7.88417697     1.40137799    -0.06291055     0.46888377    -0.63991542
O       5.91509202     3.25762298     1.27477000    -0.24596210    -0.88375096     0.99179313
