# total energy = -19958.77709893 eV

CRYSTAL
PRIMVEC
        5.43454013     0.00000000     0.00000000
        0.00002979     5.78399413     0.00000000
        0.00000000     0.00000000     9.72663185
PRIMCOORD
24 1
Ti      1.96977706     3.42758957     3.60851111     0.01470774    -0.38776672     0.33061005
Ti      3.46479285     2.35640461     6.11812101    -0.01470774     0.38776672    -0.33061005
Ti      4.68695199     2.35640660     1.25476608     0.01670523     0.38772250    -0.33047610
Ti      0.74761793     3.42758780     8.47186615    -0.01670523    -0.38772250     0.33047610
Ti      1.96976228     0.53559262     1.25480509     0.01470774    -0.38776672    -0.33061005
Ti      3.46480764     5.24840173     8.47182715    -0.01470774     0.38776672     0.33061005
Ti      0.74760315     0.53559046     6.11808201    -0.01670523    -0.38772250    -0.33047610
Ti      4.68696677     5.24840389     3.60855012     0.01670523     0.38772250     0.33047610
O       1.72007675     2.03664271     4.96342588     0.66445378     0.59517461     0.04059259
O       3.71449317     3.74735153     4.76320624    -0.66445378    -0.59517461    -0.04059259
O       0.99724607     2.03666601     0.10014113    -0.66440441     0.59490721     0.04008994
O       4.43732391     3.74732823     9.62649072     0.66440441    -0.59490721    -0.04008994
O       3.71447838     0.85535441     0.10010957    -0.66445378    -0.59517461     0.04059259
O       1.72009153     4.92863978     9.62652228     0.66445378     0.59517461    -0.04059259
O       4.43730912     0.85533111     4.96345744     0.66440441    -0.59490721     0.04008994
O       0.99726074     4.92866313     4.76317468    -0.66440441     0.59490721    -0.04008994
O       0.19746751     3.51815312     2.62740598     0.22982380    -0.13545913     0.15976121
O       5.23710241     2.26584107     7.09922615    -0.22982380     0.13545913    -0.15976121
O       2.91474193     2.26578716     2.23594100     0.22993153     0.13566405    -0.15973190
O       2.51982799     3.51820702     7.49069096    -0.22993153    -0.13566405     0.15973190
O       0.19745273     0.62615600     2.23590994     0.22982380    -0.13545913    -0.15976121
O       5.23711719     5.15783818     7.49072202    -0.22982380     0.13545913     0.15976121
O       2.51981320     0.62620990     7.09925715    -0.22993153    -0.13566405    -0.15973190
O       2.91475671     5.15778428     2.62737492     0.22993153     0.13566405     0.15973190
