# total energy = -19960.50024930 eV

CRYSTAL
PRIMVEC
        5.93400000     0.00000000     0.00000000
        0.00000000     9.29699974     0.00000000
        0.00000000     0.00000000     4.64899994
PRIMCOORD
24 1
Ti      4.39983102     6.81091502     2.28082898     0.69392249     0.73675066     0.92494416
Ti      4.49007399     2.38277699     2.32979598    -0.27138955    -2.22781595     0.54451151
Ti      1.48670200     6.99811899     2.26428198    -0.62425508    -0.13912553     0.36041146
Ti      1.50260700     2.47284100     2.31684500    -0.16279588    -2.05009866     0.75672865
Ti      2.94448700     4.64529999     4.63958302    -0.45068935    -1.06542981     0.12521688
Ti      2.94182101     9.19551799     4.57348799     0.24045737     1.83439331    -0.22104245
Ti      5.92020901     4.68025098     0.05007102     0.70567475    -0.68989151    -0.70962242
Ti      0.02054001     9.20613398     0.12144501    -0.63342389     2.06419628    -0.33556045
O       4.49090401     5.58937602     0.88359101    -0.60313320     0.76548557     0.33873063
O       4.50845200     1.03063799     0.94143300    -0.04106182    -0.88420296    -0.57709692
O       1.46215701     5.57284097     0.88772399     0.13651432     0.28941659    -0.04940634
O       1.54299000     0.85614301     0.79696401    -0.11706571     0.50758969     0.84168204
O       4.51642803     8.43764600     3.78966901    -0.45905238    -0.90168313    -0.75634298
O       4.42558702     3.75062202     3.90621300     0.29817429    -0.24714121    -0.94252409
O       1.47322798     8.41859700     3.68925202     0.30137017    -0.83279888    -0.20114570
O       1.50442700     3.67084300     3.81769900    -0.40368160     0.96370407     0.51018136
O       2.88633402     5.95965298     3.25130799     1.06308187     1.32394481    -1.02316188
O       2.87877102     1.46659602     3.16829299     0.64728883    -0.28971304     0.16238836
O       0.12032797     6.03256302     3.10977499    -1.51521825    -0.46983791     1.12219233
O       0.08994002     1.46765802     3.17068202    -0.94824968     0.32755584    -0.10603002
O       2.99433502     7.83241698     1.39726898     0.57999661    -0.17429283     0.18395710
O       2.93592200     3.35583997     1.49992799     0.57732755     0.53165239    -0.51853899
O       5.91519299     7.81828800     1.41916099    -0.19778398     0.33747156    -0.06878346
O       5.80285602     3.39707601     1.49541998     1.18399216     0.28987013    -0.36168853
