# total energy = -19074.44709243 eV

CRYSTAL
PRIMVEC
        7.60600008     0.00000000     0.00000000
        0.00000000     7.60600008     0.00000000
       -1.89786986    -1.89786986     4.85670466
PRIMCOORD
22 1
Ti      3.94975000     6.53770901     1.17902898     0.55115473     1.72801311    -0.40260919
Ti      3.65969397     2.76485599     1.12811001     0.29080010    -0.27145563     0.43835011
Ti      0.20953001     6.66167402     1.04308498    -0.51963788     2.27662373     1.23388315
Ti     -0.14153798     2.91291200     1.23579901    -1.05466845    -1.42109810    -1.53371246
Ti      5.62220422     2.79082621     3.61904882    -1.55199918    -0.38723373    -0.95175949
Ti     -1.40226875    -0.73193675     3.68529483    -0.21190989    -0.45652679     0.97919857
Ti      1.78392022     2.82691620     3.72014184     1.58964580    -0.53261450    -0.44430093
Ti      1.57088521    -1.14123376     3.75058683     0.74586111     1.43290898    -1.66517789
O       3.73335799     4.76763402     0.91388303    -0.10632904    -1.29997004    -1.29106656
O       4.01983402     0.84807999     0.63227500    -0.80860582     0.63380210     2.24388047
O       7.27740599     4.92536499     0.68428900     0.48231702    -0.82903067    -0.16096372
O      -0.34620501     0.93517098     0.99423002     1.36922247     0.75046852    -0.39413021
O      -1.38219780     5.08762221     4.10955983     0.15720939    -1.75737152    -0.89574722
O       5.36089924     0.93763123     4.00361982     1.05402285     1.12830796     0.45178567
O       2.32858321     4.70066823     4.03699079    -1.46863190    -0.30348644     0.56904088
O       1.94064924     0.92610924     4.00814079    -0.99610230    -0.42442733     0.21704310
O       3.66865421     2.74673923     3.20498879    -0.35887240     0.33342001    -0.65624707
O      -0.00677876     3.04699721     3.08110379    -0.58417285    -0.36594653     2.10791251
O       5.71427000     6.73259399     1.94562901    -0.38061443    -0.75843586    -0.41395085
O       5.49868102     2.89857902     1.67994700     0.79225437     0.30953677     0.04965548
O       2.09069200     6.58748898     1.85282900    -0.65591514     0.29467141     0.10196022
O       1.68419301     2.85313900     1.28912399     1.66497143    -0.08015546     0.41695595
