# total energy = -19515.22538674 eV

CRYSTAL
PRIMVEC
        5.93400000     0.00000000     0.00000000
        0.00000000     9.29699974     0.00000000
        0.00000000     0.00000000     4.64899994
PRIMCOORD
23 1
Ti      4.65025499     7.29473803     2.19731698    -1.05567015    -1.28148534     0.84258296
Ti      4.52334300     2.30266802     2.37275999    -1.13364223    -1.28878548     0.30532684
Ti      1.23720397     7.04195699     2.10469101     2.47077475    -1.36157935     2.04733935
Ti      1.48920099     2.27218599     2.34508899     0.87886998    -1.26709873     0.68625931
Ti      3.03660300     4.41579402     0.22159398    -1.65304768    -1.25132783     0.81979269
Ti      2.88875199     9.15390598     0.05030100     0.26061971     2.21371447     0.32781320
Ti      5.93225901     4.66319401     0.06054899     0.14126649    -0.55948254    -1.15720743
Ti      5.88440202     0.08691498     4.49196898     2.31586521     3.24956090     1.30209120
O       4.37364002     5.44039601     1.01048999     0.21279717     1.50462170    -0.18471609
O       4.38946703     0.89763300     0.68230601     1.09091151     1.41707637     2.85299380
O       1.39329999     5.61354000     0.80687000     0.89679109     0.80417580     1.01901315
O       1.53853502     0.94798601     0.71353303     0.14115953     0.16291930     1.91680954
O       4.60053101     8.53082099     3.74912101    -2.33470523    -3.80469596    -3.35132828
O       4.24545398     3.34543503     4.17521999     1.29084750     0.94035382    -2.70959715
O       1.60612402     8.36208298     3.72249398    -1.85677812    -2.35580654    -1.67354427
O       1.56763998     3.83513301     3.70828499    -0.13549873     0.47967084     0.30540552
O       2.91683998     1.15672501     3.13958598     0.64698338     1.38545308    -0.94259788
O       5.74046798     6.02539902     3.19039498     0.50142752     0.30152418     0.07189630
O       0.08890199     1.73401399     3.50066298    -0.81089898    -1.07082373    -1.74691869
O       3.05035500     7.83395398     1.50444701    -1.42177892    -0.66741492    -0.18241521
O       2.94346998     3.14847001     1.66464700     1.14959593     1.96116520    -1.06487959
O       0.07828701     8.12339600     1.30272802    -0.60306224     0.47511459    -0.17864520
O       0.10880302     3.18656898     1.37239998    -0.99282748     0.01315017     0.69452567
