# total energy = -19517.34018447 eV

CRYSTAL
PRIMVEC
        5.17600016     0.00000000     0.00000000
        0.00000000     5.50899976     0.00000000
        0.00000000     0.00000000     9.26300011
PRIMCOORD
23 1
Ti      1.96098103     3.20568699     3.37825598    -0.45666177    -0.96174001     3.36997445
Ti      3.35017402     2.34713399     5.91805399    -0.67729902     0.04201441    -2.79413248
Ti      4.34031800     2.13249002     1.54312600     1.09852429    -1.16102989    -1.07558593
Ti      0.68790799     3.40701401     7.81230402    -0.37215498     1.64865161     0.77923147
Ti      2.04877799     0.17939601     1.41972800    -1.39803683    -0.31700017    -1.57280455
Ti      3.10856201     5.18200500     7.89840999     1.07556638    -0.03952404     0.99189443
Ti      0.71916898     0.56491201     5.85311002     0.06572128    -0.57545218    -3.07177291
Ti      4.58263699     4.84441002     3.39755798     1.72446884     0.81369840     2.69517994
O       1.81982802     1.83982902     4.64168597     0.12630060     0.18700592     1.37812389
O       3.73628503     3.56229398     4.44029201    -0.57621503    -1.19702072     0.96436407
O       4.75960302     2.96043598     9.23514602     0.00074999     0.23794874    -0.95901129
O       3.44998002     0.67675500     0.25928902     0.45977152     0.25022294    -0.60746808
O       1.68087798     4.65358701     9.02162601    -0.19644058    -0.56308311     0.86036266
O       4.37487697     0.68680502     4.76846700    -0.74017562     0.62631042    -0.13186807
O       1.10629801     4.67536700     4.51312601     0.03937492    -0.41753625    -0.59304753
O       0.36360102     3.25074500     2.45637602    -0.07360583     0.78849310    -0.18996397
O       5.13728598     2.30322800     6.52651400    -0.38108365    -0.55754933     0.38267054
O       2.81392400     1.54454901     2.38394700    -0.83759064     2.41712866     0.78924129
O       2.38265502     3.75403300     6.79673699     0.57458083    -0.81643586     0.57762219
O       0.22264598     0.66278397     2.10285302     0.71483739    -0.43233167    -0.77126130
O       4.96110302     4.96533798     7.13630098    -0.57407973    -0.44306989     0.94643834
O       2.29779102     0.99545199     7.02016203     0.01577552     0.96848530    -0.18757747
O       2.96376302     4.48094801     2.40128899     0.38767262    -0.49818588    -1.78061018
