# total energy = -19961.88181745 eV

CRYSTAL
PRIMVEC
        7.60600008     0.00000000     0.00000000
        0.00000000     7.60600008     0.00000000
       -1.89786986    -1.89786986     4.85670466
PRIMCOORD
24 1
Ti      3.84400699     6.69716800     1.20611402    -0.66518114     0.90016438     0.41545880
Ti      3.84765001     2.93157000     1.16632301    -0.72692004    -0.81727352     0.70768227
Ti     -0.01238000     6.56366399     1.21115999     0.31183713     0.75376288     0.07518243
Ti     -0.00109402     2.82587399     1.26407300     0.64050112    -0.62497705    -1.36197247
Ti      5.71412125     2.76420325     3.61768481    -0.78518383    -0.32310603     0.53994112
Ti      5.67290622    -1.03724377     3.64640681    -0.02826903     0.27925893     0.03623637
Ti      1.89766322     2.91728925     3.65351181     0.84211193     0.31569713    -0.81300626
Ti      1.88041125    -0.87662577     3.65066880     0.07266789    -0.09544684    -0.42819142
O       3.84868100     4.80140802     0.78096201    -0.31858834     0.21892643     0.13373187
O       3.78221602     0.97465099     0.81605397     0.16180472     0.75105268    -0.49053247
O      -0.01299998     4.69148002     0.77614200     0.11095985    -0.27669451     0.51624094
O      -0.02148603     0.83999199     0.65943799    -0.10116112     0.63813750     1.76231781
O       5.69457222     4.66845123     4.07105081     0.11731871    -0.35809310    -0.55187464
O       5.61581424     0.86942325     4.09566083     0.48882269     1.00590438     0.07194026
O       1.85610423     4.87049624     4.00130281     0.12833666    -1.00823611     0.36340294
O       1.93038024     1.08673422     4.04483383    -0.10048903    -1.50282038     0.56137821
O       3.83270324     2.86003222     3.26554381    -0.57758954     0.30254722    -0.67425303
O       3.80831520    -0.81282578     3.22339183    -0.73698823    -0.60543897    -0.26740280
O       0.03810621     2.74267224     3.24528283    -0.61148621     0.33616903    -0.27008446
O      -0.05865776    -0.96593877     3.17813881     0.42795771     0.18614588     0.24862705
O       5.64839198     6.60284999     1.61109998     0.63435541    -0.01094853    -0.40440125
O       5.69224802     2.76472798     1.64381901     0.34874688     0.19695660    -0.05877775
O       1.87311400     6.77840698     1.69644198     0.06184637    -0.58103868    -0.45712277
O       1.89512899     2.82175402     1.59205002     0.30458945     0.31935067     0.34547952
