# total energy = -19518.42355151 eV

CRYSTAL
PRIMVEC
        7.60600008     0.00000000     0.00000000
        0.00000000     7.60600008     0.00000000
       -1.89786986    -1.89786986     4.85670466
PRIMCOORD
23 1
Ti      3.81399301     6.64283002     1.25370801     0.35195021    -0.72031873    -0.15475373
Ti      3.68516698     2.78342900     1.31085698     1.13248266     0.56707398    -0.38403091
Ti     -0.02580099     6.69364998     1.15923902    -0.09708901    -0.08796364    -0.74590481
Ti      0.00560102     2.91176199     1.11926799    -1.09376543     0.13962509     1.36437825
Ti      5.63647724     2.85934222     3.55166482     0.29455880     1.53914828     1.67023783
Ti      5.75646125    -0.82375980     3.63786779    -0.67493977    -1.92269660    -0.36434988
Ti      1.83265623     2.75115723     3.71913180     1.31543934    -0.29878672     1.00874750
Ti      1.88307121    -1.05037477     3.64516980     0.65373690     0.57573835    -0.13548819
O       3.97424598     4.70863198     0.80390602    -1.24773549    -0.45260123     0.74035329
O       3.96175099     0.92788500     0.74580601    -0.77108441    -0.28064656     0.44573509
O      -0.08810002     4.84888199     0.68700399     0.49826944    -0.26287328     1.33689829
O      -0.12624301     1.00396302     0.70492299     0.25523942    -1.00007800     0.52978834
O       5.82513321     4.76895723     3.85776481     0.25955759     0.16907272     1.30620239
O       5.80511423     0.98774522     4.14556981     0.17483071     0.89825353    -2.09407148
O       1.89981824     4.62754821     3.97560581    -0.56743162     1.54552411     0.29484651
O       2.08541023     0.90603220     4.13487080    -0.92956418    -0.10821392    -0.28872111
O       3.84812023     2.83566921     3.22781882    -1.89227812    -0.29257314    -0.30998800
O       3.86638420    -0.97477979     3.19477683    -0.91077275     0.15347563    -0.07039452
O      -0.00079879    -0.73172677     3.33886979     1.21102398    -0.61897686    -1.29640032
O       5.69100599     6.65510598     1.56520698     1.56596130     0.33257592     0.37292477
O       5.76245000     2.84898300     1.76858001     1.11705758    -0.10173473    -2.14307159
O       1.94556302     6.64202800     1.58796001    -1.26093374     0.03078409     0.46026955
O       1.74108698     2.74414102     1.80514499     0.61548710     0.19619170    -1.54320754
