# total energy = -4985.96531678 eV

CRYSTAL
PRIMVEC
        2.69979953     0.00000000     0.00000000
        0.00000000     4.23018111     0.00000000
        0.00000000    -0.00005490     4.23018111
PRIMCOORD
6 1
Ti      1.34989972     2.11506306     2.11509051     0.00000000     0.00000000     0.00000000
Ti      0.00000000     0.00000000     0.00000000     0.00000000     0.00000000     0.00000000
O       1.34989972     0.82438928     0.82439998    -0.00000000     1.48226775     1.48226775
O       1.34989972     3.40573684     3.40578103     0.00000000    -1.48226775    -1.48226775
O       0.00000000     1.29065152     2.93949135     0.00000000    -1.48389757     1.48389757
O       0.00000000     2.93947460     1.29068967    -0.00000000     1.48389757    -1.48389757
