# total energy = -4983.78972893 eV

CRYSTAL
PRIMVEC
        4.09123457     0.00000000     0.00000000
        0.00000000     2.74729334     0.00000000
        0.00000000    -0.00008805     5.45097926
PRIMCOORD
6 1
Ti      2.04561729     1.37360260     2.72548953     0.00000000     0.00000000     0.00000000
Ti      0.00000000     0.00000000     0.00000000     0.00000000     0.00000000     0.00000000
O       2.04561729     0.53538984     1.06231556     0.00000000    -0.96935022     0.90977028
O       2.04561729     2.21181540     4.38866350     0.00000000     0.96935022    -0.90977028
O       0.00000000     0.83817784     3.78780612     0.00000000     0.96908796     0.91060126
O       0.00000000     1.90902735     1.66317288     0.00000000    -0.96908796    -0.91060126
