# total energy = -19959.77822075 eV

CRYSTAL
PRIMVEC
        7.60600008     0.00000000     0.00000000
        0.00000000     7.60600008     0.00000000
       -1.89786986    -1.89786986     4.85670466
PRIMCOORD
24 1
Ti      3.82699098     6.75545598     1.30283301     0.82937314     0.44310254     0.37840790
Ti      3.78862902     2.97337902     1.14175400     1.38443518    -0.23285693     1.26031050
Ti      0.08535798     6.48981598     1.29857499    -1.10179345     0.50428351    -1.50724165
Ti      0.07843597     2.83024499     1.20840700    -1.65684006    -1.07560315    -1.30137566
Ti      5.67909622     2.89315623     3.59317581    -0.50295553    -1.72901738    -1.23516536
Ti      5.67868420    -1.12734678     3.64854183    -2.40115490     1.99362873    -0.00771177
Ti      1.92342521     3.00371723     3.60689484     0.44790459     0.47234114     0.89704203
Ti      1.77516223    -0.88670877     3.67563983     3.26991093    -1.03728984     0.71612757
O       3.78162297     4.98464702     0.77322300    -0.65043046    -3.92699104    -1.06559359
O       4.02139700     0.98999999     0.92938802    -1.33861528     0.69801903    -1.62036509
O       0.20598097     4.63788098     0.65706500    -0.00711502     1.63164967     0.59975092
O      -0.00555901     0.92102501     0.80134602     0.40344866    -2.34046373     0.16221636
O       5.31191420     4.67039622     3.92849183     1.18531551     0.66666981     1.82610561
O       5.53573522     0.83368124     4.01284279     1.10963969     0.71669142     0.16325791
O       2.12063020     4.85246024     4.02150183    -1.09650417     0.58844140    -0.05443979
O       1.94566822     1.01904325     4.09755682    -1.02508610    -0.16308179    -0.30363068
O       3.77149225     2.94556721     3.19351184    -0.58168865    -0.49355480    -0.39382090
O       3.76512021    -0.83431678     3.19472582    -0.48971640     0.14387796     0.50273390
O      -0.05478477     3.13930821     3.12577482     0.64587241    -0.27807134     0.68356274
O      -0.04649780    -1.17879979     3.17101582     0.46283628     0.46717167     0.65667747
O       5.60753802     6.33503000     1.65459602     2.56181086     0.61732441     0.36228914
O       5.67029399     2.86672202     1.58211297    -0.13138265     0.33002230     0.08748850
O       1.94259100     6.37111697     1.69929499    -2.23183279     1.39371507    -0.21365952
O       1.87193002     2.60429599     1.67961701     0.91456847     0.60999111    -0.59296629
