# total energy = -4990.06252349 eV

CRYSTAL
PRIMVEC
        3.02992925     0.00000000     0.00000000
        0.47356027     4.72376688     0.00000000
       -0.00000315    -0.00006161     4.75340506
PRIMCOORD
6 1
Ti      1.75174324     2.36185264     2.37670253     0.00000000     0.00000000     0.00000000
Ti      0.00000000     0.00000000     0.00000000     0.00000000     0.00000000     0.00000000
O       1.60725393     0.92058063     0.92636863    -0.23963127    -0.10473084    -0.13078384
O       1.89623260     3.80312464     3.82703638     0.23963127     0.10473084     0.13078384
O       0.14448801     1.44124704     3.30307212     0.23957702     0.10483960    -0.13086277
O       0.32906932     3.28245812     1.45033289    -0.23957702    -0.10483960     0.13086277
