# total energy = -19933.31065769 eV

CRYSTAL
PRIMVEC
        6.99761728     0.00000000     0.00000000
        0.00002462     4.01023593     0.00000000
        0.00000000     0.00000000    10.58681007
PRIMCOORD
24 1
Ti      2.53631438     2.37646222     3.92763117     0.06686542     0.71063261     0.71234599
Ti      4.46132769     1.63377404     6.65917934    -0.06686542    -0.71063261    -0.71234599
Ti      6.03500309     1.63377545     1.36573182     0.06758250    -0.71092520    -0.71109258
Ti      0.96263897     2.37646092     9.22107880    -0.06758250     0.71092520     0.71109258
Ti      2.53630218     0.37134431     1.36577425     0.06686542     0.71063261    -0.71234599
Ti      4.46133989     3.63889205     9.22103637    -0.06686542    -0.71063261     0.71234599
Ti      0.96262677     0.37134273     6.65913691    -0.06758250     0.71092520    -0.71109258
Ti      6.03501530     3.63889358     3.92767360     0.06758250    -0.71092520     0.71109258
O       2.21479879     1.41207231     5.40236831     2.17220245    -0.05728111     0.25904491
O       4.78284328     2.59816390     5.18444219    -2.17220245     0.05728111    -0.25904491
O       1.28406822     1.41208847     0.10899713    -2.17228499    -0.05724306     0.25801441
O       5.71357390     2.59814779    10.47781305     2.17228499     0.05724306    -0.25801441
O       4.78283107     0.59304593     0.10896279    -2.17220245     0.05728111     0.25904491
O       2.21481099     3.41719033    10.47784739     2.17220245    -0.05728111    -0.25904491
O       5.71356170     0.59302977     5.40240266     2.17228499     0.05724306     0.25801441
O       1.28408026     3.41720649     5.18440780    -2.17228499    -0.05724306    -0.25801441
O       0.25425459     2.43925285     2.85976161    -0.72980970     0.34823214     0.99913312
O       6.74338748     1.57098341     7.72704889     0.72980970    -0.34823214    -0.99913312
O       3.75307186     1.57094591     2.43367727    -0.72765846    -0.34833061    -0.99960003
O       3.24457021     2.43929035     8.15313302     0.72765846     0.34833061     0.99960003
O       0.25424238     0.43413483     2.43364347    -0.72980970     0.34823214    -0.99913312
O       6.74339968     3.57610143     8.15316681     0.72980970    -0.34823214     0.99913312
O       3.24455800     0.43417233     7.72708263     0.72765846     0.34833061    -0.99960003
O       3.75308406     3.57606393     2.85972782    -0.72765846    -0.34833061     0.99960003
