# total energy = -19515.61774269 eV

CRYSTAL
PRIMVEC
        5.17600016     0.00000000     0.00000000
        0.00000000     5.50899976     0.00000000
        0.00000000     0.00000000     9.26300011
PRIMCOORD
23 1
Ti      1.99645098     3.16059701     3.34491400    -1.05929001    -0.58181824     2.92955485
Ti      3.32306501     2.31633900     5.94806802    -0.05671959    -1.09875903    -1.55638959
Ti      4.32577298     2.20577302     1.51541500    -0.94029391    -0.47667010    -2.37105885
Ti      0.83018698     3.31251502     7.78090899    -1.46902888     0.69034043     1.07983313
Ti      1.91096197     0.24224401     1.40494501    -0.24028871    -0.63835090    -1.27408210
Ti      3.34164897     5.23692698     7.86897202     0.54731479     2.27140259     2.82141910
Ti      0.72832300     0.50218799     5.87797500    -0.24241655     0.54446601    -1.74719586
Ti      4.59684000     4.80100299     3.48197498    -0.12156437     1.30095606     1.79053645
O       1.72398899     1.60583398     4.82320203     1.36049151     3.05190881    -2.43031894
O       3.64113001     3.32066900     4.43988000    -0.14594590     1.12881189    -1.01391825
O       4.67794700     3.09085103     9.10590199     0.87033828    -0.19492492     0.52831742
O       3.68805798     0.74195598     0.24765300    -1.02663827    -0.45230015    -0.94432875
O       1.57789199     5.07354001     9.08309598     0.12493201    -1.31438082    -1.13298634
O       4.23819599     0.62498601     4.92864102    -0.73534812    -0.20658436    -1.05547192
O       0.93518998     4.69451501     4.61547403     0.98770944    -2.36068984    -1.98508264
O       0.33378898     3.33653501     2.48020699    -0.22855830     0.19697897    -0.21473784
O       5.11799402     2.16122201     6.55114699    -0.22023898     1.18400090     1.71767650
O       2.50789900     1.84598298     2.15531698     0.89155041     0.51356879    -0.22305999
O       2.56091901     3.90653997     6.91941001    -0.76101262    -2.66427707    -0.36379709
O       0.00021500     0.66714498     2.10396303     1.78437788    -0.84452183     1.05123243
O       5.13386601     4.77636301     7.12890700    -1.11512642    -0.10453878     0.79930485
O       2.33331300     1.03332399     6.92735402     0.49169821    -0.32030069     2.70865356
O       2.83801998     4.38838502     2.18579600     1.30405784     0.37568253     0.88590015
