# total energy = -4985.22836265 eV

CRYSTAL
PRIMVEC
        3.28426161     0.00000000     0.00000000
        2.20409339     4.65002462     0.00000000
       -0.00001440    -0.00006915     5.28814725
PRIMCOORD
6 1
Ti      2.74417019     2.32497776     2.64407351     0.00000000     0.00000000     0.00000000
Ti      0.00000000     0.00000000     0.00000000     0.00000000     0.00000000     0.00000000
O       2.07167326     0.90620789     1.03058198     0.01573181     0.45319567    -0.11058987
O       3.41666706     3.74374764     4.25756504    -0.01573181    -0.45319567     0.11058987
O       0.67249091     1.41874196     3.67465659    -0.01646998    -0.45348260    -0.10926010
O       1.53158795     3.23121342     1.61349044     0.01646998     0.45348260     0.10926010
