# total energy = -19922.67559156 eV

CRYSTAL
PRIMVEC
        6.25473551     0.00000000     0.00000000
        2.56038702     6.14484610     0.00000000
        0.00000000     0.00000000    11.43458232
PRIMCOORD
24 1
Ti      3.78432381     3.64143022     4.24214848     0.09152796    -2.45163056     0.67861336
Ti      5.03079881     2.50341605     7.19243396    -0.09152796     2.45163056    -0.67861336
Ti      6.43741033     2.50341814     1.47509703    -0.72323873    -1.07233631     0.30300616
Ti      2.37771234     3.64142838     9.95948548     0.72323873     1.07233631    -0.30300616
Ti      2.50413043     0.56900715     1.47514287     0.09152796    -2.45163056    -0.67861336
Ti      6.31099223     5.57583931     9.95943964    -0.09152796     2.45163056     0.67861336
Ti      1.09751881     0.56900489     7.19238806     0.72323873     1.07233631     0.30300616
Ti      7.71760385     5.57584157     4.24219432    -0.72323873    -1.07233631    -0.30300616
O       2.88121906     2.16370484     5.83497985     1.82030777     2.13701792    -0.86792273
O       5.93390350     3.98114145     5.59960259    -1.82030777    -2.13701792     0.86792273
O       2.04930721     2.16372966     0.11772544    -0.14052318    -0.79077649     1.54304582
O       6.76581550     3.98111672    11.31685663     0.14052318     0.79077649    -1.54304582
O       4.65371009     0.90871825     0.11768832    -1.82030777    -2.13701792    -0.86792273
O       4.16141253     5.23612802    11.31689375     1.82030777     2.13701792     0.86792273
O       5.48562202     0.90869347     5.83501691     0.14052318     0.79077649     1.54304582
O       3.32950049     5.23615288     5.59956547    -0.14052318    -0.79077649    -1.54304582
O       1.78462156     3.73764391     3.08876597     0.62359739     2.60951101     2.47382562
O       7.03050100     2.40720237     8.34581647    -0.62359739    -2.60951101    -2.47382562
O       4.35761983     2.40714519     2.62856162     0.80068707     1.96859389     1.35649371
O       4.45750273     3.73770109     8.80602064    -0.80068707    -1.96859389    -1.35649371
O       0.50442814     0.66522065     2.62852506     0.62359739     2.60951101    -2.47382562
O       8.31069449     5.47962562     8.80605713    -0.62359739    -2.60951101     2.47382562
O       3.17730932     0.66527790     8.34585290    -0.80068707    -1.96859389     1.35649371
O       5.63781324     5.47956838     3.08872948     0.80068707     1.96859389    -1.35649371
