# total energy = -19519.07788953 eV

CRYSTAL
PRIMVEC
        7.60600008     0.00000000     0.00000000
        0.00000000     7.60600008     0.00000000
       -1.89786986    -1.89786986     4.85670466
PRIMCOORD
23 1
Ti      3.81467300     6.67203902     1.23036600     0.00526896     0.55731690    -0.07698631
Ti      3.76705298     2.93409401     1.15715703     0.39145600    -0.68673265     1.52547772
Ti     -0.04873400     6.57823499     1.16758102     0.20794499    -0.41837238     0.08066196
Ti      0.01660198     2.73303000     1.18679100    -0.35056465     0.90079378     1.04459666
Ti      5.65251925     2.84238622     3.66867480    -1.17534451    -0.09081243    -0.28628447
Ti      5.71822724    -0.96947775     3.67653382    -0.46722490    -0.10753437    -0.75325920
Ti      1.92637622     2.89981322     3.67143880     1.33556775     0.34032111    -0.59667870
Ti      1.84766222    -0.92590175     3.60230481     0.68983109    -0.28471661     0.12157697
O       4.00584300     4.80620798     0.83063000    -0.54959716    -0.56646617    -0.48434176
O       3.73773402     1.05207698     0.86522200     0.05256571    -0.68769527    -1.10212075
O      -0.14476400     4.75221300     0.77741499     0.51043436    -0.07836160     0.57567535
O       0.16542001     0.89763501     0.79852302    -0.11715159    -0.17938542    -0.04306959
O       5.78005525     4.69316122     4.00000183     0.25047851     0.61814408     0.21622343
O       5.54433023     0.91518120     4.20407681     0.54645913    -0.23263993    -1.98839653
O       1.89219423     4.74388524     4.07346380    -0.56832842     1.16676319     0.14482335
O       1.97346522     1.01734120     3.94213381    -0.75689963    -0.91809808     0.68956395
O       3.77970725     2.92104821     3.17430979     0.43788963    -0.05441510    -0.14726102
O       3.84099222    -1.07673875     3.16359782    -0.20908707     0.28940991     1.05497158
O      -0.00534876    -1.02166680     3.11061283     0.11914625     0.41239842     1.31029431
O       5.71092703     6.75702102     1.64857298     0.24297680     0.25147198    -0.33655316
O       5.75295799     2.79054003     1.75321799     0.98343370    -0.27075243    -0.47618725
O       1.92702298     6.55879201     1.64935399    -0.27600006     0.12299879    -0.10754646
O       1.91100399     3.00378899     1.66055398    -1.30325488    -0.08363596    -0.36517983
