# total energy = -19893.53892837 eV

CRYSTAL
PRIMVEC
        8.41059816     0.00000000     0.00000000
        0.00003174     5.37085169     0.00000000
        0.00000000     0.00000000    12.84532995
PRIMCOORD
24 1
Ti      3.04845587     3.18276172     4.76552582     0.51985488    -0.61896066     2.14090106
Ti      5.36217348     2.18808991     8.07980427    -0.51985488     0.61896066    -2.14090106
Ti      7.25361025     2.18809171     1.65708791     0.51870509     0.61910979    -2.14212156
Ti      1.15701917     3.18276011    11.18824225    -0.51870509    -0.61910979     2.14212156
Ti      3.04844028     0.49733594     1.65713943     0.52032334    -0.71631243    -2.13852845
Ti      5.36218907     4.87351582    11.18819079    -0.52032334     0.71631243     2.13852845
Ti      1.15700351     0.49733399     8.07975275    -0.51952115    -0.71647081    -2.13922136
Ti      7.25362584     4.87351776     4.76557727     0.51952115     0.71647081     2.13922136
O       2.66201844     1.89116813     6.55487358     0.62295770     1.51556020    -2.00797421
O       5.74861098     3.47968342     6.29045651    -0.62295770    -1.51556020     2.00797421
O       1.54335187     1.89118982     0.13224988    -0.62184621     1.51507324    -2.00767005
O       6.86727762     3.47966181    12.71307980     0.62184621    -1.51507324     2.00767005
O       5.74859538     0.79425751     0.13220819    -0.62194391    -1.51622201    -2.00574326
O       2.66203404     4.57659404    12.71312149     0.62194391     1.51622201     2.00574326
O       6.86726196     0.79423589     6.55491520     0.62111371    -1.51644749    -2.00629836
O       1.54336733     4.57661573     6.29041482    -0.62111371     1.51644749     2.00629836
O       0.30559567     3.26685646     3.46984408    -2.14630732     0.68211829     0.12829990
O       8.10503375     2.10399509     9.37548594     2.14630732    -0.68211829    -0.12829990
O       4.51090444     2.10394516     2.95286176    -2.14745815    -0.68234815    -0.12859120
O       3.89972491     3.26690646     9.89246806     2.14745815     0.68234815     0.12859120
O       0.30558001     0.58143055     2.95282076    -2.14683517     0.68194449    -0.12845390
O       8.10504934     4.78942101     9.89250906     2.14683517    -0.68194449     0.12845390
O       3.89970932     0.58148055     9.37552687     2.14817831     0.68163981    -0.12840017
O       4.51092003     4.78937101     3.46980308    -2.14817831    -0.68163981     0.12840017
