# total energy = -19961.16151860 eV

CRYSTAL
PRIMVEC
        5.93400000     0.00000000     0.00000000
        0.00000000     9.29699974     0.00000000
        0.00000000     0.00000000     4.64899994
PRIMCOORD
24 1
Ti      4.45213601     6.87418398     2.29698699    -0.47118954     0.92021025     0.42184131
Ti      4.44288900     2.32096099     2.33705999     0.13268440    -0.27836470     0.71377784
Ti      1.48457000     7.00844599     2.34931002     0.63495679     0.41505154    -0.05978511
Ti      1.45731102     2.40198099     2.31858800    -0.10892971    -1.13442924     0.14258495
Ti      2.95571101     4.66669600     0.02790198     0.09764308    -0.44616035    -0.17443450
Ti      3.00311402     9.28924301     4.61397899    -0.05090966    -0.22445328    -0.23133381
Ti      0.01708200     4.65633201     0.01573397    -0.28437003    -0.22380201    -0.22916662
Ti      5.92784101     9.24749500     0.08309300     0.20111871     0.29523809    -0.68431427
O       4.37609699     5.58781801     0.83212398     0.69286756    -0.26634762     0.29959534
O       4.43638801     0.90695800     0.78372098     0.17687448     0.37747331     0.77026731
O       1.51649198     5.59855698     0.90963802    -0.31875726    -0.16865697    -0.19949660
O       1.46658099     0.91774200     0.96156502     0.09506966    -0.33616441    -0.77985984
O       4.47417502     8.38265501     3.63472803    -0.18118699     0.29776240     0.93264899
O       4.48233001     3.70506002     3.68700598    -0.27835622     0.56344641     0.80012117
O       1.44829802     8.37019299     3.73983797     0.01225131    -0.04007554    -0.25265932
O       1.44560498     3.71153302     3.84623499     0.37691718    -0.05330747    -0.67161713
O       2.95978202     6.17110602     3.25671402    -0.55201220    -0.93916520    -0.02296613
O       3.00585299     1.41633301     3.24030597    -0.25313009     0.36564083    -0.52419285
O       5.87867500     5.94444803     3.20840198     0.72265689     0.89803962    -0.47494772
O       5.92237398     1.40243200     3.13825801     0.38786160     0.23951275     0.18811689
O       3.01199700     7.85201501     1.36265999    -0.86771859     0.05841471     0.22285302
O       3.03176701     3.26640299     1.38135900    -0.56087814    -0.07512689     0.23112375
O       5.85630101     7.86676001     1.40314401     0.80295247    -0.18640608     0.04793695
O       0.06627601     3.33693199     1.49367301    -0.40641546    -0.05832987    -0.46609310
