# total energy = -19916.66267508 eV

CRYSTAL
PRIMVEC
        7.89561051     0.00000000     0.00000000
        0.00002643     4.04604161     0.00000000
        0.00000000     0.00000000    11.92901281
PRIMCOORD
24 1
Ti      2.86179484     2.39768059     4.42557867     0.18370693    -0.13002896     2.49154747
Ti      5.03384227     1.64836120     7.50343426    -0.18370693     0.13002896    -2.49154747
Ti      6.80946494     1.64836264     1.53888014     0.18397433     0.13004208    -2.49181332
Ti      1.08617223     2.39767933    10.39013298    -0.18397433    -0.13004208     2.49181332
Ti      2.86178169     0.37465984     1.53892797     0.18370693    -0.13002896    -2.49154747
Ti      5.03385549     3.67138206    10.39008514    -0.18370693     0.13002896     2.49154747
Ti      1.08615902     0.37465829     7.50338642    -0.18397433    -0.13004208    -2.49181332
Ti      6.80947810     3.67138362     4.42562651     0.18397433     0.13004208     2.49181332
O       2.49901998     1.42468009     6.08728394     1.74582315     0.88544481    -1.61683754
O       5.39661720     2.62136170     5.84172899    -1.74582315    -0.88544481     1.61683754
O       1.44885026     1.42469637     0.12281586    -1.74383080     0.88538156    -1.61679743
O       6.44678698     2.62134541    11.80619671     1.74383080    -0.88538156     1.61679743
O       5.39660398     0.59834089     0.12277717    -1.74582315    -0.88544481    -1.61683754
O       2.49903313     3.44770089    11.80623546     1.74582315     0.88544481     1.61683754
O       6.44677382     0.59832461     6.08732263     1.74383080    -0.88538156    -1.61679743
O       1.44886323     3.44771723     5.84169031    -1.74383080     0.88538156     1.61679743
O       0.28688198     2.46103190     3.22232395    -1.86108446     0.58848408     0.30852812
O       7.60875513     1.58500994     8.70668898     1.86108446    -0.58848408    -0.30852812
O       4.23469711     1.58497218     2.74222042    -1.86285081    -0.58844886    -0.30855255
O       3.66094000     2.46106967     9.18679233     1.86285081     0.58844886     0.30855255
O       0.28686883     0.43801104     2.74218233    -1.86108446     0.58848408    -0.30852812
O       7.60876835     3.60803075     9.18683042     1.86108446    -0.58848408     0.30852812
O       3.66092684     0.43804881     8.70672701     1.86285081     0.58844886    -0.30855255
O       4.23471033     3.60799298     3.22228586    -1.86285081    -0.58844886     0.30855255
