# total energy = -4939.23246580 eV

CRYSTAL
PRIMVEC
        6.06602163     0.00000000     0.00000000
       -0.00000787     2.30090444     0.00000000
       -3.03304718    -1.15056143     6.69470749
PRIMCOORD
6 1
Ti     -0.00025919     1.72574344     1.67367658    -0.02811965    -0.01867830    52.68089770
Ti      3.03322583    -0.57540073     5.02103038     0.02811965     0.01867830   -52.68089770
O       0.00006440     0.57520780     1.09051305     0.02700379     0.01899763   -48.57197842
O       3.03290206     0.57513486     5.60419397    -0.02700379    -0.01899763    48.57197842
O      -0.00002630    -0.57527117     4.43786680    -0.00152389    -0.00010773    -1.15466589
O       3.03299264     1.72561377     2.25684022     0.00152389     0.00010773     1.15466589
