# total energy = -19517.41704565 eV

CRYSTAL
PRIMVEC
        7.60600008     0.00000000     0.00000000
        0.00000000     7.60600008     0.00000000
       -1.89786986    -1.89786986     4.85670466
PRIMCOORD
23 1
Ti      3.76655598     6.58894898     1.11230401     1.28544793     0.98369929     2.01787527
Ti      3.72207799     2.81215099     1.21149803     1.26961198    -0.96961247     1.41626776
Ti      0.09409798     6.74920698     1.18237100    -1.12545789     1.17080394    -0.99054820
Ti     -0.01066102     2.98399998     1.14016297    -1.02771968    -1.57228596     1.82407933
Ti      5.61745321     2.86175220     3.75236180    -0.79215384     1.67352550    -2.13711820
Ti      5.73522124    -0.82764777     3.55933979    -1.42356610    -1.56597467     0.25525279
Ti      1.92489923     2.71794421     3.80004983     1.63302649    -0.11094906    -2.21494732
Ti      1.86123720    -1.02516276     3.53977781     2.56207131     0.02675697     1.65183541
O       3.97065599     4.70856498     0.76591401    -0.93147400    -1.30355107     1.27917443
O       3.57881802     0.95148297     0.76242202    -0.23201772    -0.51613244    -0.22545138
O      -0.17855599     4.82212002     0.82510899     0.52532131    -0.03151222     0.20718677
O       0.21149299     0.94710599     0.79143099    -0.20721094     0.94164091     0.19995374
O       5.77044322     4.88067523     4.07140583     0.60143602    -1.42592611    -0.38083528
O       5.44336723     1.00108524     4.13828781     0.59087006    -0.66049556    -0.98473570
O       2.07956324     4.59897322     4.14576582    -1.40918694     1.63791391    -1.46063962
O       2.34330820     0.85320523     4.06473079    -1.62595467    -0.10587807    -0.12411594
O       3.85658823     2.89381024     3.25463181    -1.41795621     0.05476580    -0.82434637
O       3.73282124     6.28327122     3.17877282     0.52898925     1.45268308     0.02920774
O      -0.00788876    -0.68152278     3.14623779     0.84750251    -0.30763209     0.56193897
O       5.68342701     6.77074502     1.65335399    -0.00254462     0.13890004    -0.28010560
O       5.62853699     2.80133201     1.67881102     1.63688264    -0.12481553     0.47405118
O       1.95536302     6.35132998     1.59016499    -1.61205683     0.41181297    -0.13057918
O       1.75422301     2.94416902     1.77308500     0.32614044     0.20226259    -0.16340087
