# total energy = -4981.33887222 eV

CRYSTAL
PRIMVEC
        4.21584063     0.00000000     0.00000000
        0.00000000     2.50556889     0.00000000
        0.00000000    -0.00010002     5.71232574
PRIMCOORD
6 1
Ti      2.10792031     1.25273428     2.85616261     0.00000000     0.00000000     0.00000000
Ti      0.00000000     0.00000000     0.00000000     0.00000000     0.00000000     0.00000000
O       2.10792031     0.48827892     1.11324806     0.00000000    -0.64648279     1.15662044
O       2.10792031     2.01718964     4.59907715     0.00000000     0.64648279    -1.15662044
O       0.00000000     0.76441579     3.96941193     0.00000000     0.64696153     1.16187398
O       0.00000000     1.74105277     1.74291329     0.00000000    -0.64696153    -1.16187398
