# total energy = -19961.07754627 eV

CRYSTAL
PRIMVEC
        5.93400000     0.00000000     0.00000000
        0.00000000     9.29699974     0.00000000
        0.00000000     0.00000000     4.64899994
PRIMCOORD
24 1
Ti      4.45712599     6.87904098     2.26470199    -0.65884800     1.68544668     0.16258145
Ti      4.45055303     2.30948700     2.29261598    -0.13353286     0.61710690     0.27682024
Ti      1.44718997     6.97614702     2.34890801     0.43616622     1.48971932    -0.19236692
Ti      1.49153799     2.27464401     2.36383102     0.09993136     0.23078308    -0.08280009
Ti      2.95376300     4.68756300     4.58072401     0.10766550    -0.52119623    -0.23065504
Ti      2.97079299     0.07180702     0.03451903    -0.04714814    -2.03942112    -0.35617171
Ti      0.02123303     4.62502901     0.02563599    -0.08841719    -0.32084757    -0.29438885
Ti      5.92115301     0.06975398     0.01341898    -0.12610906    -1.73763546    -0.92195706
O       4.38837099     5.50729099     0.88613699     0.79497151     0.38340510     0.14882116
O       4.49158098     0.87376001     0.93946800    -0.27226707     0.84427552     0.67917592
O       1.44863002     5.60238399     0.82789601    -0.07497031    -0.60304039     0.07559766
O       1.42331101     0.90394799     0.88200200     0.83760196     0.87089313     1.21641584
O       4.46018802     8.35305400     3.81195197     0.04796009     0.20207901    -0.51923473
O       4.40488101     3.73978199     3.73455202     0.40367672     0.09864735     0.23977988
O       1.55607301     8.45390598     3.72297601    -0.52674750    -0.61991454    -0.21108996
O       1.47959002     3.74027899     3.66386500    -0.23869128     0.31556472     1.05403724
O       2.91839899     6.02266000     3.15483702     0.68779452    -0.19256439     0.46420051
O       2.95060699     1.39553201     3.35399701     0.32238869     1.09574235    -1.45012997
O       0.02046201     6.05113302     3.22872303    -0.38193623    -0.12471166    -0.13872341
O       0.00646300     1.48563798     3.26970701     0.06564106    -0.47243884     0.09128602
O       2.99319697     7.85122299     1.39473501     0.15129251    -0.20561248     0.58139143
O       3.03668899     3.24306600     1.47594700    -0.66601881    -0.45635684    -0.35592848
O       0.05073000     7.92158700     1.40378998    -0.49978999    -0.90236498     0.60131389
O       0.02950798     3.22548197     1.48272100    -0.24061369     0.36244161    -0.83797451
