# total energy = -19515.84482166 eV

CRYSTAL
PRIMVEC
        5.17600016     0.00000000     0.00000000
        0.00000000     5.50899976     0.00000000
        0.00000000     0.00000000     9.26300011
PRIMCOORD
23 1
Ti      1.90514002     3.22927501     3.45173901    -1.55871644     0.38757158     1.67502137
Ti      3.35478702     2.25658801     5.76609201     0.23691876     0.86634253    -1.86790431
Ti      4.32916902     2.03723197     1.57159002     3.09172493     0.45606888    -2.36514633
Ti      0.78333198     3.32921098     7.77823601    -1.98633065     2.54191334     1.78066752
Ti      2.18652103     0.18318100     1.33737400    -2.10199100     1.59106479    -2.69997222
Ti      3.24076498     5.13620402     7.81167302     0.74568447    -0.85729996     1.52051524
Ti      0.67691100     0.65983598     5.91929200     0.83444387    -2.56359341    -3.64643370
Ti      4.44444701     5.00349901     3.41231599     4.56923125     0.08340765     2.94280092
O       1.70864000     1.98112199     4.70982501    -0.69449327    -0.59584721     0.84445755
O       3.49008499     3.76581798     4.52729902    -0.26400174    -1.81974599     1.52364838
O       4.91302399     3.03982903     9.15359901    -1.23876362    -0.78012338     2.70641875
O       3.71459500     0.68146901     0.29989798    -1.12183135    -0.59862966    -1.84356804
O       1.84049901     4.65698401     8.96472602    -0.07358089     0.30278196     1.29184175
O       4.14580302     0.78692599     4.69536100     0.44684915     1.54822788     0.66969935
O       0.90848002     4.74009601     4.63180200     0.26957538    -0.07628389    -1.15499345
O       0.05165802     3.20154999     2.71037100     1.13156323     0.99790798    -0.31719352
O       5.09066800     2.10075198     6.77112502    -1.90608032    -0.48430243    -0.85326589
O       2.74966701     1.77323402     2.37564199    -1.50657034     1.56407951    -0.09147166
O       2.36139903     3.36030898     7.01291701     4.08965580     0.42963407    -0.89644116
O       0.31678799     0.65067402     2.04380399     0.72545708    -0.78500977     0.09063708
O       5.07951702     4.78750198     6.99606398    -1.44035078     0.50889787     1.19307150
O       2.44946899     0.83470102     6.73636099    -0.40364715    -0.71274631     1.08815785
O       2.88359098     4.73502400     2.59031698    -1.84474689    -2.00431578    -1.59054748
