# total energy = -19516.72647987 eV

CRYSTAL
PRIMVEC
        5.17600016     0.00000000     0.00000000
        0.00000000     5.50899976     0.00000000
        0.00000000     0.00000000     9.26300011
PRIMCOORD
23 1
Ti      1.87536200     3.21826400     3.47177398    -0.24939016    -0.85481267     3.68777088
Ti      3.42050702     2.25601602     5.92141998    -0.44704533    -0.09827351    -3.16558889
Ti      4.34724598     2.18173901     1.43029102    -0.06627792    -0.77570725    -0.60535644
Ti      0.79690702     3.43660200     7.80067302     1.33113465     0.34807248     1.41680924
Ti      2.03493900     0.32705599     1.46196201    -2.57273085     0.42786901    -3.69614574
Ti      3.26105300     5.13008800     8.02664599    -0.54159974     0.29080627    -0.53066355
Ti      0.76179002     0.55408499     5.94448798    -0.63903816    -0.00840108    -3.62170019
Ti      4.45736798     4.85484598     3.26318501     1.67252508     0.56922754     3.58829101
O       1.66639699     1.92712400     4.88479498     0.77957137     0.23298111    -0.84468509
O       3.57126200     3.53526699     4.41477001     0.25124649    -0.14044656     0.62353903
O       4.80447698     2.83639001     9.07133697     0.38481741     1.12625313     1.24929666
O       3.26655200     0.94931599     0.00020299     0.48428777     0.86947336     1.71882604
O       1.86706201     4.64153299     9.14919202    -1.44670038    -1.61790403     0.07312092
O       4.45578098     0.79106300     4.73604198    -0.75602879    -0.24462179    -0.27281112
O       0.98112902     4.60527101     4.38451297    -0.03886121     0.79688570     0.99340033
O       0.26071298     3.31563002     2.52537698    -1.23059162    -0.32093859    -1.80764123
O       5.15166801     2.20035700     6.72566499    -0.20661367    -1.48056696    -0.34183215
O       2.65890697     1.77904502     2.34597700     0.58864606     1.52892069    -0.04798657
O       2.60597602     3.48050900     7.02295100    -0.55293137    -0.19992931     0.83906157
O       0.08043499     0.60856902     1.86694602     1.05336542    -0.36474326    -0.02382874
O       4.98578401     4.79471599     7.20102200    -0.07379274     1.45370998    -0.30571765
O       2.51921598     0.69376497     6.68954298     0.40039933    -0.47887920     1.12400779
O       2.72649698     4.56743002     2.38660898     1.87560862    -1.05897505    -0.05016661
