# total energy = -19072.56677067 eV

CRYSTAL
PRIMVEC
        5.17600016     0.00000000     0.00000000
        0.00000000     5.50899976     0.00000000
        0.00000000     0.00000000     9.26300011
PRIMCOORD
22 1
Ti      1.62259498     3.24291900     3.28266201     0.04296186     2.13815358    -0.19172852
Ti      3.95742698     2.33661803     5.80144301    -1.39111208    -1.31291323    -0.47384395
Ti      4.24937502     2.03888200     1.28821200     2.26221398     1.10591030     1.61900472
Ti      0.95184202     3.25174202     8.22071598     0.68948811    -1.13657406    -0.14880162
Ti      1.67998600     0.52393199     1.40792100    -0.46461780     0.33316136    -1.16951839
Ti      3.19438202     5.22509802     7.96036299    -0.15468996    -1.40583885     3.62347606
Ti      1.30629399     0.07342398     6.02920698    -0.61077195     1.49634120    -2.57643401
Ti      4.15919798     5.02114199     3.54911302     0.13700205    -0.64197359     0.95550482
O       3.04674400     3.44416199     4.53019002     1.11372491     0.29860263     0.74982498
O       1.00653402     1.82897601     0.17175998    -1.47117780     1.21189275    -0.58363292
O       4.47517400     3.90204303     8.08768500    -0.52043544    -0.80697085    -0.25518183
O       3.42337802     0.98852702     0.18253101    -0.89522683    -1.42754591    -1.87663192
O       1.72871100     4.58479101     9.23298602     0.18757593     0.50425291     0.34427470
O       3.58878502     0.88857999     4.72686102     0.87759137    -0.41580821    -1.21201668
O       0.77029300     4.79412601     4.31812002     0.07058504     0.46200890     2.17327795
O       4.89636300     3.42109901     2.59255899     1.43085775    -1.02480353    -0.78042729
O       0.53901598     1.89104702     6.22648500    -0.26025770     0.16807642     0.38001202
O       2.65162602     1.91975097     2.41985401    -0.83196404     0.33545067    -0.65774191
O       2.02916001     4.08283702     6.82794802     0.59956837    -0.69809668     0.39874688
O       5.03659799     0.54707302     2.10421798     0.73386948    -0.27389406     0.90818314
O       2.90682302     1.02878900     6.89131901    -0.79782363     2.69118496    -1.06608107
O       2.60635401     4.85400501     2.48060599    -0.74736135    -1.60061618    -0.16026540
