# total energy = -19516.62274118 eV

CRYSTAL
PRIMVEC
        5.93400000     0.00000000     0.00000000
        0.00000000     9.29699974     0.00000000
        0.00000000     0.00000000     4.64899994
PRIMCOORD
23 1
Ti      4.48436698     6.90935400     2.30223399     2.02814580     0.18248231    -0.28785979
Ti      4.53640600     2.38247198     2.31989301    -1.66700518    -0.18419776    -0.11198650
Ti      1.56077602     7.11939102     2.31718701    -0.95766224    -0.33957215    -1.35461320
Ti      1.47272098     2.33027901     2.39593001     1.30219533     0.06730071    -0.61433782
Ti      2.98665502     4.65344900     0.20694000    -1.56456313    -0.34656375     1.21550567
Ti      3.01181301     0.15497601     4.58617502    -0.77525063    -0.74335968     0.09989382
Ti      5.91020999     4.41593901     4.60363099     0.49401143     2.51539035    -1.22584819
Ti      5.91079198     0.04258702     4.58038598     0.72069051    -0.71184591     0.41930414
O       4.49620700     5.41362001     0.97940999    -0.61014923     0.69176430    -0.20216849
O       4.49500698     1.04425198     0.82683601    -0.53685914    -0.86009526    -0.26845001
O       1.44642399     5.55428500     1.03425598     0.51229275    -0.74054226    -1.10578637
O       1.53788402     0.91511199     0.97220301    -0.53557359    -0.33005264    -0.97114819
O       4.30910299     8.48002500     3.43810899     0.52212337     0.08697582     1.76630765
O       4.22504398     3.55858302     3.74713501     1.44655177     1.45801298     0.73611174
O       1.41712202     8.46979997     3.68933600     0.37859894    -0.32124043     0.04901064
O       1.49910898     3.60166498     3.88024198    -0.21768382     0.64789278    -0.58586001
O       2.92336600     1.49459701     3.20687499     0.38114330    -1.05990348     0.33476084
O       5.77695300     5.92442401     3.30348799    -0.20503527     0.56129851    -0.22874316
O       0.01293299     1.36795198     3.13671799    -0.71700458     0.18457211     0.60830369
O       2.90497101     7.72298001     1.14960699     0.34669308     0.10197076     1.51840719
O       2.87074700     3.34469899     1.51687198     0.63900370    -0.48017452    -0.24747880
O       0.05274500     7.79008799     1.48761102    -0.95486410     1.00307770    -1.34022710
O       5.91491999     3.27780998     1.36555200    -0.02979884    -1.38319076     1.79690250
