# total energy = -19075.50699494 eV

CRYSTAL
PRIMVEC
        7.60600008     0.00000000     0.00000000
        0.00000000     7.60600008     0.00000000
       -1.89786986    -1.89786986     4.85670466
PRIMCOORD
22 1
Ti      3.66670197     6.87817001     1.25027502     0.94926475    -1.23607502    -1.40277615
Ti      3.78764898     2.92867497     1.09897298     0.39641746     0.93521264     0.58727258
Ti     -0.08163702     6.50582201     1.05701298    -0.15106676    -0.09378051     0.78512084
Ti      0.00531998     2.67639898     1.26604900    -0.48200155     0.27879896    -1.20841482
Ti      5.63780923     2.73347720     3.55229084     0.10112204    -0.05589195     0.47983822
Ti     -1.44839576    -1.02932876     3.71638981    -0.82880158     0.39267805    -0.11797717
Ti      1.92474424     2.94241623     3.63667180     0.23621711    -0.23684985     0.78944261
Ti      1.63399325    -0.86742576     3.74667182     0.09122663    -0.01542791    -0.71737584
O       3.82330002     4.80098002     0.80470302    -0.21683098     0.98882659    -1.01839686
O       4.17321001     1.02455299     0.83134497    -1.49529656     0.22375034     0.32572932
O      -0.17728999     4.62259501     0.83031599     0.47932631     1.28355482    -0.35989467
O       7.25913101     0.77325401     0.57981898     0.42678143     0.60102310     2.29844495
O       5.80236721     4.68093225     4.03172479     0.79102975    -1.08536255    -0.96913502
O       5.62935822     0.80754724     4.15770681     0.62864807     0.89413000    -1.43743823
O       2.04714823     4.93360824     4.10415481    -0.75172579    -1.08104824    -0.11756014
O       2.16048625     0.98660823     4.01269282    -0.39252995     0.07856420    -0.20135550
O       3.79776521     3.03317124     3.10274979     0.18722857    -0.63397617     0.58650279
O       0.11297220     2.57503725     3.21720284    -0.62107257     0.45167537     0.27024593
O       5.45130399     6.65954302     2.00853199     0.93401065    -0.32625357    -0.15392763
O       5.76858602     2.96812101     1.64620100    -0.50702405    -0.71588075     0.79250376
O       1.82210899     6.75186599     1.78259601    -0.14001590    -0.09872191     0.08964849
O       1.89455198     2.93774200     1.43684900     0.36509267    -0.54894590     0.69950256
