# total energy = -19957.87193755 eV

CRYSTAL
PRIMVEC
        7.60600008     0.00000000     0.00000000
        0.00000000     7.60600008     0.00000000
       -1.89786986    -1.89786986     4.85670466
PRIMCOORD
24 1
Ti      3.68740302     6.61882802     1.37973702    -2.28871332     0.75302137    -1.11166649
Ti      3.74587599     3.00924898     1.25025999     0.83288064    -1.03393404     1.08360648
Ti     -0.15354099     6.56925401     1.07719702     2.35592687     0.08046270     1.59774143
Ti      0.12262900     2.74703599     1.11922899    -0.33481098     0.19484187    -1.07618114
Ti      5.76471424     2.91968023     3.58232879    -0.07145793    -1.23510545    -2.28273396
Ti      5.80317220    -1.06731178     3.59670082    -0.38293228     1.69355054     0.16481420
Ti      1.85485321     2.93444925     3.75890979     0.88443539     0.57291193    -2.86769357
Ti      1.79887324    -0.92396179     3.76500183     0.56101929    -0.78016863     0.15069061
O       3.69722100     4.84363203     0.66224400     0.43420575    -0.23298060     4.25656853
O       3.61451298     1.17058199     0.80957298     0.86788828    -2.93839097     1.25079510
O       0.15204300     4.75552502     0.49594301    -0.52244964    -0.98232709     3.04782127
O       0.39506199     0.81797600     0.61531799    -1.70583579     1.08980593     1.75806700
O      -1.45248180     4.73231022     4.17004982    -1.12605670    -0.52056374    -2.37830602
O       5.80428321     0.86881422     3.89374881    -0.56746582     0.01415419     0.01564774
O       1.51759822     4.74482024     4.26869682     0.55926425     1.86604206    -0.33841232
O       1.91293025     1.07792025     4.26543883     0.41542975    -0.88924515    -3.23083195
O       3.76208623     3.15984023     3.35241482     1.42234868    -0.35016073    -0.99613547
O       3.65708524    -1.29318775     3.34872280     1.68951828     0.82399902    -0.30860423
O       0.13136524     2.82478721     3.02237179    -0.72393653    -0.44847203     0.87260600
O      -0.00391977    -1.03815877     3.23049281    -1.26995754     0.78640819    -1.52882273
O       5.57255802     6.64346699     1.45392799     1.55872981    -0.11644505     0.98041985
O       5.93309098     3.06157599     1.52641998    -1.99156054    -0.44167095     0.36396910
O       1.80390698     6.31253298     1.79209299     0.23663620     1.22702910    -0.37581983
O       1.97541799     2.84808699     1.45441801    -0.83310561     0.86723779     0.95246089
