# total energy = -4925.90222395 eV

CRYSTAL
PRIMVEC
        5.79029337     0.00000000     0.00000000
       -0.00000751     2.19631787     0.00000000
       -2.89518140    -1.09826319     6.39040260
PRIMCOORD
6 1
Ti     -0.00024741     1.64730056     1.59760037    -0.03800838    -0.02493148    67.46110594
Ti      2.89535193    -0.54924615     4.79280173     0.03800838     0.02493148   -67.46110594
O       0.00006147     0.54906199     1.04094428     0.03560542     0.02448360   -62.64833816
O       2.89504288     0.54899236     5.34945788    -0.03560542    -0.02448360    62.64833816
O      -0.00002510    -0.54912248     4.23614558    -0.00140125     0.00013961    -0.93571349
O       2.89512934     1.64717678     2.15425658     0.00140125    -0.00013961     0.93571349
