# total energy = -19915.17975658 eV

CRYSTAL
PRIMVEC
        7.05972615     0.00000000     0.00000000
        0.00003283     6.14755947     0.00000000
        0.00000000     0.00000000    11.60271606
PRIMCOORD
24 1
Ti      2.55883062     3.64303792     4.30452505     0.37430185    -0.88101608     0.95739947
Ti      4.50092843     2.50452129     7.29819147    -0.37430185     0.88101608    -0.95739947
Ti      6.08857138     2.50452327     1.49678685     0.37409076     0.88099782    -0.95780390
Ti      0.97118767     3.64303613    10.10592980    -0.37409076    -0.88099782     0.95780390
Ti      2.55881447     0.56925832     1.49683337     0.37430185    -0.88101608    -0.95739947
Ti      4.50094458     5.57830109    10.10588328    -0.37430185     0.88101608     0.95739947
Ti      0.97117152     0.56925607     7.29814495    -0.37409076    -0.88099782    -0.95780390
Ti      6.08858753     5.57830327     4.30457158     0.37409076     0.88099782     0.95780390
O       2.23445948     2.16466011     5.92077737     0.95696469     1.42469687    -0.86566324
O       4.82529957     3.98289911     5.68193915    -0.95696469    -1.42469687     0.86566324
O       1.29546797     2.16468495     0.11945648    -0.95702537     1.42514527    -0.86632119
O       5.76429114     3.98287433    11.48325971     0.95702537    -1.42514527     0.86632119
O       4.82528342     0.90911930     0.11941882    -0.95696469    -1.42469687    -0.86566324
O       2.23447563     5.23843991    11.48329738     0.95696469     1.42469687     0.86566324
O       5.76427492     0.90909453     5.92081504     0.95702537    -1.42514527    -0.86632119
O       1.29548399     5.23846475     5.68190148    -0.95702537     1.42514527     0.86632119
O       0.25651602     3.73929419     3.13418319    -0.82276309     0.07649729     0.01044048
O       6.80324302     2.40826502     8.46853334     0.82276309    -0.07649729    -0.01044048
O       3.78638616     2.40820789     2.66721199    -0.82262759    -0.07632143    -0.01070916
O       3.27337288     3.73935132     8.93550434     0.82262759     0.07632143     0.01070916
O       0.25649981     0.66551438     2.66717491    -0.82276309     0.07649729    -0.01044048
O       6.80325924     5.48204483     8.93554141     0.82276309    -0.07649729     0.01044048
O       3.27335667     0.66557152     8.46857034     0.82262759     0.07632143    -0.01070916
O       3.78640238     5.48198769     3.13414611    -0.82262759    -0.07632143     0.01070916
