# total energy = -19876.07373515 eV

CRYSTAL
PRIMVEC
        9.62689966     0.00000000     0.00000000
        0.00002993     3.41531082     0.00000000
        0.00000000     0.00000000    15.31558539
PRIMCOORD
24 1
Ti      3.48930561     2.02390991     5.68197307     0.25596293     0.05243587     1.97549962
Ti      6.13762358     1.39140058     9.63361277    -0.25596293    -0.05243587    -1.97549962
Ti      8.30259123     1.39140168     1.97575866     0.27576146    -0.05234562    -1.97638202
Ti      1.32433803     2.02390894    13.33982732    -0.27576146     0.05234562     1.97638202
Ti      3.48929104     0.31625457     1.97582008     0.25497794     0.05275289    -1.97687233
Ti      6.13763822     3.09905605    13.33976590    -0.25497794    -0.05275289     1.97687233
Ti      1.32432340     0.31625340     9.63355135    -0.27580799     0.05271638    -1.97659697
Ti      8.30260586     3.09905722     5.68203449     0.27580799    -0.05271638     1.97659697
O       3.04698491     1.20258889     7.81542617     0.58525709     0.52568589    -2.06351391
O       6.57994435     2.21272166     7.50015967    -0.58525709    -0.52568589     2.06351391
O       1.76654198     1.20260276     0.15768256    -0.58510976     0.52619574    -2.06334088
O       7.86038734     2.21270780    15.15790282     0.58510976    -0.52619574     2.06334088
O       6.57992971     0.50506619     0.15763282    -0.58603382    -0.52583373    -2.06249935
O       3.04699955     2.91024430    15.15795256     0.58603382     0.52583373     2.06249935
O       7.86037271     0.50505239     7.81547585     0.58495370    -0.52628342    -2.06389212
O       1.76655642     2.91025817     7.50011000    -0.58495370     0.52628342     2.06389212
O       0.34978550     2.07738564     4.13712178    -1.53953189     0.53129347     0.52091366
O       9.27714376     1.33792485    11.17846400     1.53953189    -0.53129347    -0.52091366
O       5.16324806     1.33789319     3.52071980    -1.53927247    -0.53162540    -0.52161866
O       4.46368120     2.07741736    11.79486578     1.53927247     0.53162540     0.52161866
O       0.34977086     0.36973023     3.52067092    -1.53927247     0.53141251    -0.52043544
O       9.27715840     3.04558033    11.79491467     1.53927247    -0.53141251     0.52043544
O       4.46366663     0.36976189    11.17851282     1.53923236     0.53161203    -0.52185109
O       5.16326263     3.04554860     4.13707289    -1.53923236    -0.53161203     0.52185109
