# total energy = -4971.79108192 eV

CRYSTAL
PRIMVEC
        4.19867582     0.00000000     0.00000000
       -0.00000682     2.79911689     0.00000000
       -2.09936265    -1.39960116     4.65142722
PRIMCOORD
6 1
Ti     -0.00018045     2.09943935     1.16285656    -0.01012989    -0.01942109    21.34678860
Ti      2.09948685    -0.69992391     3.48857002     0.01012989     0.01942109   -21.34678860
O       0.00004418     0.69977162     0.75767937     0.00974783     0.01272697   -10.90368565
O       2.09926212     0.69974377     3.89374726    -0.00974783    -0.01272697    10.90368565
O      -0.00001799    -0.69977420     3.08339288    -0.00122770    -0.00025377     0.94693867
O       2.09932425     2.09928954     1.56803380     0.00122770     0.00025377    -0.94693867
