# total energy = -19515.91433099 eV

CRYSTAL
PRIMVEC
        5.17600016     0.00000000     0.00000000
        0.00000000     5.50899976     0.00000000
        0.00000000     0.00000000     9.26300011
PRIMCOORD
23 1
Ti      1.87189202     3.18260602     3.39724301    -0.55125038     0.12974666     2.55834090
Ti      3.34799698     2.24136898     5.82331999     1.00031814     1.83689628    -3.25630979
Ti      4.37417502     2.06878703     1.58334897    -0.45937609     1.14489312    -2.28169498
Ti      0.81283102     3.38593000     7.77419002    -0.04597957     0.14286854     1.85958705
Ti      2.11833902     0.26647398     1.34397998    -1.42744049    -1.78239993    -0.93882401
Ti      3.19794502     5.28762100     7.79323400     0.36149698    -1.90140554     2.60105928
Ti      0.71179902     0.62577401     5.92997101    -0.21333376    -1.68299102    -3.73760197
Ti      4.48182200     4.94733002     3.27373299     0.28612069     0.21427222     3.40524511
O       1.80744099     1.97346299     4.78077498    -1.85678480    -1.06018887     0.71868042
O       3.50184400     3.69794301     4.49354799    -0.40868703    -0.33697919     0.40804965
O       0.14389298     2.55419401     0.08260399     0.46427893     1.21398357    -1.19311804
O       3.47778300     0.77952799     0.22736302    -0.38284537    -0.02610545    -1.01317417
O       1.74676198     4.59365298     8.98241202     0.84138559     0.72779627     0.63625571
O       4.17741401     0.82451203     4.79209699     0.73255847    -0.13267771    -0.12060355
O       0.89530800     4.79270200     4.57634100     0.06929048    -0.47983719    -1.01679557
O       0.00243099     3.19045901     2.77838303     1.54592700     0.89551505    -0.05874793
O       5.00742799     1.98288002     6.76425402    -0.51400202     2.35338996     1.27058849
O       2.78972700     1.48708100     2.54301700    -0.62040177     1.37872244     0.13189533
O       2.47348798     3.69410298     6.87852800     0.47372722    -0.16353919     0.52646442
O       0.22578702     0.74503500     1.94373202     2.11875460    -3.32311016     1.00252594
O       5.08313802     4.96827401     7.29621999    -1.20474637    -0.83451689     0.00962004
O       2.36810799     1.04974600     6.94393701    -1.24574520     0.44884716     0.42863057
O       2.84011102     4.25121201     2.25973201     1.03673449     1.23682012    -1.94007289
