# total energy = -4987.60148034 eV

CRYSTAL
PRIMVEC
        3.99481747     0.00000000     0.00000000
        1.53646115     3.68752678     0.00000000
       -2.76567640    -1.84378811     5.20757612
PRIMCOORD
6 1
Ti      1.15223788     2.76578705     1.30189376     0.00011956    -0.00011956    -0.00000000
Ti      1.61336447    -0.92204835     3.90568166    -0.00011956     0.00011956    -0.00000000
O       0.38415682     0.92187687     0.84827147    -0.00047617    -0.00063198    -1.75129574
O       2.38144534     0.92186176     4.35930400     0.00047617     0.00063198     1.75129574
O      -0.38412232    -0.92185386     3.45205942    -0.00063198    -0.00047617    -1.75129574
O       3.14972441     2.76559244     1.75551610     0.00063198     0.00047617     1.75129574
