# total energy = -19879.68222941 eV

CRYSTAL
PRIMVEC
        9.43280894     0.00000000     0.00000000
        0.00002933     3.34645375     0.00000000
        0.00000000     0.00000000    15.00680342
PRIMCOORD
24 1
Ti      3.41895671     1.98310528     5.56741717     0.23752143     0.07387656     2.01119374
Ti      6.01388117     1.36334815     9.43938671    -0.23752143    -0.07387656    -2.01119374
Ti      8.13520028     1.36334922     1.93592482     0.22916997    -0.07363771    -2.01204246
Ti      1.29763767     1.98310433    13.07087919    -0.22916997     0.07363771     2.01204246
Ti      3.41894243     0.30987847     1.93598500     0.23752143     0.07387656    -2.01119374
Ti      6.01389552     3.03657508    13.07081901    -0.23752143    -0.07387656     2.01119374
Ti      1.29762333     0.30987733     9.43932653    -0.22916997     0.07363771    -2.01204246
Ti      8.13521462     3.03657623     5.56747735     0.22916997    -0.07363771     2.01204246
O       2.98555377     1.17834315     7.65785710     0.85016797     0.50238680    -1.99199325
O       6.44728418     2.16811034     7.34894678    -0.85016797    -0.50238680     1.99199325
O       1.73092622     1.17835673     0.15450348    -0.85004533     0.50186204    -1.99106740
O       7.70191179     2.16809675    14.85229994     0.85004533    -0.50186204     1.99106740
O       6.44726984     0.49488340     0.15445474    -0.85016797    -0.50238680    -1.99199325
O       2.98556811     2.85157002    14.85234868     0.85016797     0.50238680     1.99199325
O       7.70189745     0.49486988     7.65790577     0.85004533    -0.50186204    -1.99106740
O       1.73094037     2.85158361     7.34889810    -0.85004533     0.50186204     1.99106740
O       0.34273337     2.03550286     4.05371206    -1.49717347     0.52741701     0.71262264
O       9.09010457     1.31095056    10.95309175     1.49717347    -0.52741701    -0.71262264
O       5.05915032     1.31091954     3.44973755    -1.50078484    -0.52727843    -0.71301114
O       4.37368763     2.03553395    11.55706607     1.50078484     0.52727843     0.71301114
O       0.34271903     0.36227599     3.44968965    -1.49717347     0.52741701    -0.71262264
O       9.09011891     2.98417750    11.55711397     1.49717347    -0.52741701     0.71262264
O       4.37367335     0.36230701    10.95313958     1.50078484     0.52727843    -0.71301114
O       5.05916459     2.98414641     4.05366416    -1.50078484    -0.52727843     0.71301114
