# total energy = -39025.83684617 eV

CRYSTAL
PRIMVEC
        5.93200024     0.00000000     0.00000000
        0.00000000     9.29399984     0.00000000
        0.00000000     0.00000000     9.29399984
PRIMCOORD
46 1
Ti      4.55925000     7.17655698     7.09773798    -2.34088951    -2.41972779     0.52316698
Ti      4.48053399     6.98898200     1.93147701     0.62498090    -0.24671364     2.24300938
Ti      4.43131701     2.12772901     6.86592998    -1.01434711     0.29340617    -2.66509417
Ti      4.30525699     2.77082802     2.39443101    -2.36452387    -0.81396580     0.37678297
Ti      1.56040602     6.87072502     7.04494297     1.96902327    -0.23547534     2.74432146
Ti      1.58934598     7.05303902     1.85251498    -0.34351622    -0.98726798     0.61511815
Ti      1.46275900     2.40174599     7.15409298     3.28521440     1.52883764    -3.04456445
Ti      1.16024800     2.21619898     4.09037102     0.48887488     1.14526053    -0.14532729
Ti      3.09496601     4.81517102     4.39621801     0.80081460     1.74109129     0.60961624
Ti      2.96815202     4.52135498     0.00333202    -1.50033644     2.47558657    -1.85062212
Ti      2.90769998     9.22982900     4.77120200     1.42836841    -0.68598343    -0.94144602
Ti      3.01724099     9.18147199     9.25983002     0.19702936    -0.16343660    -2.83400491
Ti      0.17175702     5.48650100     4.61361000    -3.45890482    -0.75376442    -0.02812736
Ti      5.75337202     4.16119203     9.07155500    -0.16564467     2.78974104    -1.53572717
Ti      5.88368800     8.62676898     4.41607199     0.03468857    -0.30255982    -0.35828696
Ti      0.03162300     0.39045402     0.15045901     0.17135252    -1.36237022    -0.66118539
O       4.18236499     6.16235200     5.13285401     2.44503928    -1.73160828     1.21018117
O       4.50017900     4.81085198     1.07487499    -0.25751253    -0.16519370     1.39856828
O       4.47234200     0.67466099     5.52624999     0.18099930    -1.65210254    -0.84791388
O       4.51760402     1.28236698     0.95831502     0.07600595    -0.47319294    -1.76708438
O       1.71323198     5.79625802     5.44604799     0.37882519     0.24945906     1.97613905
O       1.37511900     5.42873701     0.88657002     0.26570098    -0.87417309     0.06398784
O       1.35958098     0.78433398     5.30015001    -0.42746534    -1.93344561    -0.05297400
O       1.75816601     0.74021398     0.76631899    -2.40375249     2.06185684     2.51221940
O       4.64722498     8.59992699     8.18689102    -0.14227770     1.14267092     0.92434458
O       4.28094097     8.28822301     3.33362400     0.75210837     1.61434511     1.03625575
O       4.24662902     3.83954502     7.92380701     0.67437516    -2.14315926     1.28997436
O       4.70237498     4.07964100     3.77751100    -0.88201444     0.21553386    -0.68695557
O       1.58505001     8.36011698     8.34215798     0.05556413    -0.21684409    -0.46372074
O       1.60138101     8.26255601     3.54514297     0.05318123     3.25107914     0.53643825
O       1.40578302     4.05286500     8.13343602     1.07564557    -2.54245430    -0.59741841
O       1.33243302     4.11722798     4.01198198     0.41524360    -1.22269885    -1.85959193
O       3.13796701     6.02023102     7.92794401    -1.35577585     0.58573120    -0.01287223
O       2.84957398     6.31106901     3.08723098     0.89993272    -2.20046532    -1.81133796
O       2.93934398     1.43066001     7.91202498     0.22238431     0.15330902    -0.33055246
O       2.94755702     1.74145698     3.35266401    -0.36712461     0.87599446    -0.58283742
O       5.62306699     5.81693398     7.90467598     1.56550493     1.50875860    -0.15281023
O       0.24265899     6.62572002     3.21994699    -2.38838192    -1.64202227    -0.56483969
O       0.17248898     1.41007697     7.71812200    -2.49214191    -1.60892008     3.25061891
O       2.85831297     7.95350300     6.14069198     0.18477368     0.55700837    -0.08172563
O       3.11825802     7.43661600     0.78078500     0.52406738     0.66215161     0.71638854
O       2.90070298     2.77404499     5.76558500    -0.09472950     1.48153601     0.64911791
O       0.14203800     7.65440102     6.16723398    -0.30492626     1.46436875    -3.14941459
O       5.84579399     7.97541602     0.97412599     0.09760965    -0.85121724     1.74303118
O       0.04508998     2.59127399     5.66549801     0.06414365     2.54828917     1.09689909
O       5.73759698     1.93949003     2.83378503     3.37281346    -1.11725298     1.51025524
