# total energy = -19949.87819362 eV

CRYSTAL
PRIMVEC
        5.68336860     0.00000000     0.00000000
        0.90227900     5.98114953     0.00000000
        0.00000000     0.00000000    10.20086744
PRIMCOORD
24 1
Ti      2.59463744     3.54442361     3.78444910     0.18011073    -1.45848555     0.79701605
Ti      3.99101009     2.43672575     6.41641858    -0.18011073     1.45848555    -0.79701605
Ti      5.26912788     2.43672777     1.31594395    -0.32905093    -0.15758708    -0.10407572
Ti      1.31651966     3.54442183     8.88492385     0.32905093     0.15758708     0.10407572
Ti      2.14349807     0.55384896     1.31598486     0.18011073    -1.45848555    -0.79701605
Ti      4.44214947     5.42730058     8.88488294    -0.18011073     1.45848555     0.79701605
Ti      0.86538026     0.55384676     6.41637767     0.32905093     0.15758708    -0.10407572
Ti      5.72026728     5.42730277     3.78449001    -0.32905093    -0.15758708     0.10407572
O       2.11652979     2.10606436     5.20542462     1.33150077     1.49111157    -0.41690093
O       4.46911773     3.87508501     4.99544299    -1.33150077    -1.49111157     0.41690093
O       1.36060689     2.10608853     0.10502364    -0.69549703     0.32694391     0.55531709
O       5.22504070     3.87506088    10.09584375     0.69549703    -0.32694391    -0.55531709
O       4.01797834     0.88451018     0.10499055    -1.33150077    -1.49111157    -0.41690093
O       2.56766918     5.09663919    10.09587683     1.33150077     1.49111157     0.41690093
O       4.77390131     0.88448605     5.20545777     0.69549703    -0.32694391     0.55531709
O       1.81174616     5.09666337     4.99540991    -0.69549703     0.32694391    -0.55531709
O       0.75530715     3.63807419     2.75550884     0.26473605     0.62070001     0.78916518
O       5.83034037     2.34307512     7.44535884    -0.26473605    -0.62070001    -0.78916518
O       3.40163880     2.34301949     2.34495745     0.65520063     0.84139922     0.13192130
O       3.18400872     3.63812982     7.85591005    -0.65520063    -0.84139922    -0.13192130
O       0.30416776     0.64749936     2.34492483     0.26473605     0.62070001    -0.78916518
O       6.28147976     5.33364995     7.85594262    -0.26473605    -0.62070001     0.78916518
O       2.73286933     0.64755499     7.44539135    -0.65520063    -0.84139922     0.13192130
O       3.85277819     5.33359432     2.75547627     0.65520063     0.84139922    -0.13192130
