# total energy = -19518.34351055 eV

CRYSTAL
PRIMVEC
        7.60600008     0.00000000     0.00000000
        0.00000000     7.60600008     0.00000000
       -1.89786986    -1.89786986     4.85670466
PRIMCOORD
23 1
Ti      3.80640397     6.58338600     1.14560101     0.92329969     0.94828722     0.45323680
Ti      3.81856600     2.79380399     1.20456501     0.14943489    -0.67236918     1.89501198
Ti      0.11895502     6.77755998     1.20171100    -1.02135491    -0.53325085    -0.10605085
Ti     -0.01518501     2.89232298     1.17999399    -0.24533373    -0.21008235     0.16115449
Ti      5.59024323     2.89630224     3.74087082    -1.56020048    -1.27507918    -0.45880684
Ti      5.76592421    -1.03396377     3.52943879    -1.05112367     2.00885995    -0.10475038
Ti      1.81509723     2.77722921     3.70166281     1.94123991     1.16270316    -0.70172219
Ti      1.92284020    -0.89072575     3.61579179     1.00877039    -1.78627176     0.19237335
O       3.93129298     4.67213298     0.90216498    -0.80572412     0.10463314    -0.80532432
O       3.74258599     0.85093998     0.80331398     0.35829904     1.14763726    -0.90860377
O      -0.15859299     4.78905898     0.89657702     0.93704121     0.07453168    -0.32547324
O      -0.00473100     0.94316097     0.70483002     0.30473600    -0.06275242     0.39475473
O       5.62703624     4.81337023     3.98373079     0.77662591    -0.80175717     0.07152863
O       5.62707021     1.01172621     4.16571580     0.84883228     0.00415002    -1.03310974
O       1.76640525     4.79250721     3.95996179    -0.08482047    -1.25590286     0.45537468
O       2.00104223     0.90324122     4.11942179    -0.79672166     1.00358935     0.20304318
O       3.71916223     2.90876320     3.40580579     0.34462103     0.09330125    -1.07073322
O       3.84728921    -0.68436779     3.09731583    -0.45081225    -1.01496803     0.68097081
O       0.09562921    -0.71217479     3.09508979    -0.73723402    -0.06191836     0.99203455
O       5.73791300     6.61362499     1.64810302     0.28499224     0.09375068    -0.67609831
O       5.68947699     2.63115501     1.73657600     0.71027548     0.49488612     0.39025967
O       1.96513200     6.53679798     1.57298800    -0.68167426    -0.08465695    -0.09132768
O       1.90047998     2.64571300     1.68339501    -1.15316796     0.62267899     0.39225793
