# total energy = -39037.58502793 eV

CRYSTAL
PRIMVEC
        7.60600008     0.00000000     0.00000000
        0.00000000     7.60600008     0.00000000
       -3.79573973    -3.79573973     9.71340985
PRIMCOORD
46 1
Ti      2.04903845     4.76784045     6.04259262    -0.85537240     0.79717135     0.02023767
Ti      3.73442200     6.81112198     1.15984900     0.39936806     0.41212074     1.09195177
Ti      1.91834146     0.80349348     6.09066060     0.30293391    -0.49917009    -0.65107298
Ti      3.69287598     2.85792498     1.27124600     1.02122507    -0.32871618    -0.49217386
Ti     -1.76702555     4.74121845     6.08960262    -0.04770247     1.04179930    -0.51862255
Ti     -0.01912399     6.68785501     1.19454102     0.10341006     0.21694308     0.26705596
Ti     -1.84729153     0.97653745     6.09944161    -0.47418565    -1.51206247    -0.44071887
Ti     -0.02594799     2.89067603     1.19991598    -1.28379908    -0.21623783     0.69064047
Ti      3.76076143     0.94456144     8.48552464     1.12608807     0.03206321    -0.27469599
Ti      5.55815001     2.71371201     3.63873898     1.70571006     0.16712974     0.47862337
Ti      3.77276047    -2.83487757     8.44930764     0.35678878     0.46448590     0.42086558
Ti      5.74617801    -1.05597098     3.58268900    -0.70070660     0.37487546     1.83325534
Ti     -0.00305457     0.95707447     8.40969163    -0.50292005     0.08371669     0.20038080
Ti      1.83593798     2.84048102     3.50800198    -2.05642538    -0.16706829     2.11756803
Ti      0.05383447    -2.78534155     8.49445863    -0.45148948     0.10749683     0.93577803
Ti      1.90173402    -0.97159197     3.65076099     0.95947821     0.48864374     0.28952535
O       2.11515343    -1.01313054     5.61791164     0.02998370     0.32981507    -0.27618312
O       3.75881501     1.06292199     0.82124197     0.52645825    -1.10952861    -0.82017424
O      -1.89634155     2.80650044     5.76716264     0.34739987    -0.14936187    -0.54583538
O       0.23341601     4.78117202     0.74524799    -0.75899379     0.10209417    -0.09143283
O      -1.99479154    -0.97809853     5.59519464     0.11026746    -0.48123253     0.54664502
O      -0.13224298     0.95605501     0.87737800    -0.03803923    -0.15785448    -0.48859823
O       3.71262144     2.94254344     8.82922764     0.02893649    -0.82367069     0.71622553
O       5.61049998     4.69911202     4.14928601    -0.12096274    -0.46540893    -0.45071147
O       3.85031145    -0.94658655     8.94244464    -0.12442473     0.34854299     0.00570631
O       5.91679798     0.85439302     3.99274200    -0.66083366     1.31392213     0.52473947
O      -0.04502753     2.83158047     8.89875963     0.68749833     0.19154854     0.08545322
O       1.88184400     4.73280998     4.04435599     0.54012932    -0.99516307    -0.01778741
O      -0.03514356    -0.78749153     9.05647964     0.05389111    -0.10167123     0.13148138
O       1.72654799     1.02779600     4.18302001    -0.00322545     0.07747945     0.08022796
O       1.91482544     0.90683645     8.07760761     0.11269946     0.49584488     0.05281871
O       3.67945800     2.65402500     3.29932501     0.62501021     0.48064632    -0.12759670
O       1.87021744    -2.50341956     8.08880664     1.67435982    -1.08545125    -0.29341800
O       3.80585300    -0.66456000     3.13268900    -0.35885234    -0.99594366     0.64457272
O      -1.88770956     0.93291044     8.08696161    -0.55532326     0.43192415    -0.40707314
O      -0.11443601     2.90846702     3.29812198     0.43516631     0.15442668    -0.84469101
O      -1.75208053    -2.77611153     8.15376564    -1.58278532     0.02214286    -0.58905615
O       0.06191300    -1.09533801     3.24943899    -0.27908950     0.20569501    -0.68181002
O       3.89237247     4.65799744     6.51844061    -0.88658535    -0.30465938     0.40649593
O       5.70896902     6.51452602     1.72633198     0.13908336    -0.25524019    -2.24571315
O       3.81765947     0.91187543     6.41171064    -0.49195892     0.42456976     0.71400795
O       5.56438001     2.96893002     1.73580198     0.13254376     0.32133505    -0.80700016
O       0.10426342     4.85489943     6.45483065    -0.06090637    -0.80966305    -0.11233025
O       1.94140200     6.78222398     1.62587398    -0.96982433    -0.54558752    -0.39224919
O      -0.00937956     0.54024346     6.47813360     0.65535387     1.19534950     0.16553668
O       1.75886902     2.64496299     1.65517198     1.19062252     0.72190870    -0.85084829
