# total energy = -19920.04941142 eV

CRYSTAL
PRIMVEC
        6.81258429     0.00000000     0.00000000
        0.00002280     3.49105360     0.00000000
        0.00000000     0.00000000    10.29273230
PRIMCOORD
24 1
Ti      2.46924776     2.06879520     3.81853027    -0.56428922     1.15340733    -0.57245145
Ti      4.34335948     1.42225856     6.47420213     0.56428922    -1.15340733     0.57245145
Ti      5.87542329     1.42225980     1.32779481    -0.56281212    -1.15370044     0.57483512
Ti      0.93718400     2.06879411     8.96493775     0.56281212     1.15370044    -0.57483512
Ti      2.46923641     0.32326845     1.32783608    -0.56428922     1.15340733     0.57245145
Ti      4.34337088     3.16778541     8.96489647     0.56428922    -1.15340733    -0.57245145
Ti      0.93717260     0.32326711     6.47416085     0.56281212     1.15370044     0.57483512
Ti      5.87543464     3.16778675     3.81857155    -0.56281212    -1.15370044    -0.57483512
O       2.15623405     1.22925937     5.25230251     4.46502466    -1.22328223     2.48020967
O       4.65637324     2.26179438     5.04042988    -4.46502466     1.22328223    -2.48020967
O       1.25011416     1.22927342     0.10596944    -4.46430218    -1.22355297     2.47975047
O       5.56249319     2.26178034    10.18676265     4.46430218     1.22355297    -2.47975047
O       4.65636184     0.51626758     0.10593606    -4.46502466     1.22328223     2.48020967
O       2.15624540     2.97478617    10.18679608     4.46502466    -1.22328223    -2.48020967
O       5.56248184     0.51625354     5.25233590     4.46430218     1.22355297     2.47975047
O       1.25012536     2.97480027     5.04039650    -4.46430218    -1.22355297    -2.47975047
O       0.24753091     2.12345673     2.78032377     1.26671692    -0.38094533     1.00690556
O       6.56507633     1.36759708     7.51240863    -1.26671692     0.38094533    -1.00690556
O       3.65383158     1.36756449     2.36607514     1.26840048     0.38118290    -1.00680838
O       3.15877566     2.12348932     7.92665710    -1.26840048    -0.38118290     1.00680838
O       0.24751956     0.37792988     2.36604228     1.26671692    -0.38094533    -1.00690556
O       6.56508773     3.11312388     7.92668997    -1.26671692     0.38094533     1.00690556
O       3.15876431     0.37796247     7.51244145    -1.26840048    -0.38118290    -1.00680838
O       3.65384298     3.11309129     2.78029090     1.26840048     0.38118290     1.00680838
