# total energy = -19519.24743204 eV

CRYSTAL
PRIMVEC
        7.60600008     0.00000000     0.00000000
        0.00000000     7.60600008     0.00000000
       -1.89786986    -1.89786986     4.85670466
PRIMCOORD
23 1
Ti      3.78748700     6.66820200     1.14395897     0.76580079    -0.07267689     0.33150505
Ti      3.86497702     2.83931101     1.24391902    -0.52086301    -0.11796200     0.91563085
Ti      0.01983499     6.69035299     1.24483302    -1.12235559     0.60157331    -0.30218829
Ti     -0.02950502     2.90614298     1.11754001     0.94355947    -0.86299752     1.14799644
Ti      5.66308025     2.92235025     3.68806782    -0.80515668    -0.14563711    -0.47628007
Ti      5.62074221    -0.93487877     3.59878282     0.55976382    -0.14190078     0.46175847
Ti      1.96445121     2.78076221     3.69427481     0.99396108     0.04949401    -0.65132418
Ti      1.91349022    -0.97577380     3.59496184    -0.58429652    -0.11146816     0.60686208
O       3.99197199     4.73919900     0.82568902    -0.81780111    -0.46078377    -0.18216710
O       3.91165400     0.92745600     0.86645102    -0.29515452    -0.04267467    -0.74474190
O      -0.02803200     4.79229299     0.74095700     0.46862615     0.32361202     0.86535934
O      -0.10756999     0.98733500     0.77215999     0.45584416    -1.35102574     0.17333818
O       5.54466324     4.76382220     4.05729479     0.72257873     0.45388421    -0.25431434
O       5.64657024     0.97491923     4.16215883     0.40566315    -0.03558974    -2.58643484
O       1.98325224     4.72894021     4.04779781    -0.73274873     0.16555391    -0.18472175
O       1.80305723     0.92033322     4.10893683    -0.07229199     0.12564240    -0.33516348
O       3.83013720     2.78975923     3.27937280    -0.48518329     0.02953402    -0.81608130
O       3.75468521    -0.94770179     3.13578579     0.17643662     0.30996306     0.54539469
O      -0.01024678    -0.96159576     3.22770780     0.13461890    -0.02702333     0.07874135
O       5.71497100     6.59660803     1.66190200    -0.30031756     0.24708542    -0.07593807
O       5.77357098     2.78433500     1.63389699    -0.01039420     0.39644651     0.71783813
O       1.87422601     6.55832401     1.59278002     0.46346594     0.29168611    -0.00398958
O       1.85899100     2.76078000     1.64204198    -0.34375585     0.37526447     0.76891980
