# total energy = -19073.35886733 eV

CRYSTAL
PRIMVEC
        7.60600008     0.00000000     0.00000000
        0.00000000     7.60600008     0.00000000
       -1.89786986    -1.89786986     4.85670466
PRIMCOORD
22 1
Ti      4.09355402     6.63960902     1.23126899     0.25250428    -0.29776214    -1.05067244
Ti      3.51739699     2.61880402     1.15793799     0.09875637     1.97825816     1.10766816
Ti      0.07271599     6.85104798     1.03305798    -0.43799864    -1.46378922     0.15696436
Ti     -0.20965701     2.96858002     1.07022601    -0.94325043     0.27358913    -0.43672954
Ti      5.53248221     2.88880221     3.51170183     0.19843653    -0.51593549     0.40736342
Ti     -1.06504976    -0.76269179     3.88077883    -4.06018580     0.73184113    -1.33430456
Ti      1.80356423     2.74302621     3.81487182     0.33019199     0.23256871     0.13801661
Ti      1.61362320    -0.96753075     3.80712879     1.54175024    -0.98465754    -1.78781827
O       3.80985400     4.57979197     0.79644298    -0.23883577     1.38393973     0.63270810
O       4.02730097     0.89244299     0.87973299    -0.50589405    -1.73263287     1.03593204
O       7.23747898     4.76590102     0.59728501     0.67699511     0.04623257     1.28236003
O       7.18434202     0.98423502     0.49535298     1.69438178    -0.21813016     1.23697619
O       5.52504621     4.75256422     4.05928582     1.67812649     0.83390677    -1.68041631
O       5.51135920     1.00093120     3.93074682     1.30431392    -0.88215791    -0.26237012
O       2.30439923     4.81216921     4.19557183    -1.13413434    -1.01398330     0.41537447
O       2.10953023     0.79818122     4.10646780    -0.95862923     0.48282944    -0.60254391
O       3.59567422     2.73915422     3.14215884    -0.31646641     0.34852422    -1.04367724
O       0.05379420     2.82749824     3.23323781    -0.19857151     0.42877403    -0.09650511
O       6.02300799     6.62648400     1.94024299    -1.30349708     0.43127083     1.24456994
O       5.64789201     2.65807400     1.65220499    -0.89622519     0.86042179     0.15978718
O       1.83793901     6.73565602     1.83888301     0.72848661    -0.22594529     0.09607162
O       1.60793100     2.74986799     1.13254499     2.48974512    -0.69716337     0.38124563
