# total energy = -4973.07371760 eV

CRYSTAL
PRIMVEC
        5.31489940     0.00000000     0.00000000
       -0.00000753     2.86186926     0.00000000
       -2.65747921    -1.43099902     5.73372267
PRIMCOORD
6 1
Ti     -0.00022749     2.14650056     1.43343044    -0.00873018    -0.01135245    17.76708662
Ti      2.65763975    -0.71563015     4.30029178     0.00873018     0.01135245   -17.76708662
O       0.00005642     0.71545611     0.93397651     0.00747086     0.01158411   -11.51300005
O       2.65735573     0.71541418     4.79974583    -0.00747086    -0.01158411    11.51300005
O      -0.00002170    -0.71547551     3.80083784    -0.00227311     0.00011107    -2.14930317
O       2.65743374     2.14634580     1.93288449     0.00227311    -0.00011107     2.14930317
