# total energy = -19930.35065114 eV

CRYSTAL
PRIMVEC
        6.14092993     0.00000000     0.00000000
        0.65198431     6.50320556     0.00000000
        0.00000000     0.00000000    11.00471046
PRIMCOORD
24 1
Ti      2.61215710     3.85379363     4.08266919    -0.02951036    -1.34897708     0.73311254
Ti      4.18075733     2.64941198     6.92204165     0.02951036     1.34897708    -0.73311254
Ti      5.56177479     2.64941419     1.41964227     0.06895933     0.31302498    -0.46831993
Ti      1.23113966     3.85379173     9.58506876    -0.06895933    -0.31302498     0.46831993
Ti      2.28616508     0.60219091     1.41968642    -0.02951036    -1.34897708    -0.73311254
Ti      4.50674937     5.90101495     9.58502461     0.02951036     1.34897708     0.73311254
Ti      0.90514754     0.60218851     6.92199757    -0.06895933    -0.31302498    -0.46831993
Ti      5.88776684     5.90101729     4.08271334     0.06895933     0.31302498     0.46831993
O       2.17321793     2.28988924     5.61561966     1.57615290     1.62022908    -0.27446845
O       4.61969651     4.21331643     5.38909118    -1.57615290    -1.62022908     0.27446845
O       1.35643520     2.28991554     0.11329967    -1.13340877     0.83678435     0.37534623
O       5.43647930     4.21329019    10.89141092     1.13340877    -0.83678435    -0.37534623
O       4.29370447     0.96171346     0.11326399    -1.57615290    -1.62022908    -0.27446845
O       2.49920997     5.54149222    10.89144660     1.57615290     1.62022908     0.27446845
O       5.11048726     0.96168721     5.61565540     1.13340877    -0.83678435     0.37534623
O       1.68242711     5.54151846     5.38905550    -1.13340877     0.83678435    -0.37534623
O       0.61968798     3.95561841     2.97264691     0.44148917     0.42590263     0.82997426
O       6.17322639     2.54758726     8.03206393    -0.44148917    -0.42590263    -0.82997426
O       3.54899588     2.54752670     2.52974350     0.56848398     0.88923693     0.13311763
O       3.24391856     3.95567891     8.47496722    -0.56848398    -0.88923693    -0.13311763
O       0.29369594     0.70401544     2.52970832     0.44148917     0.42590263    -0.82997426
O       6.49921843     5.79919017     8.47500233    -0.44148917    -0.42590263     0.82997426
O       2.91792652     0.70407600     8.03209904    -0.56848398    -0.88923693     0.13311763
O       3.87498792     5.79912967     2.97261180     0.56848398     0.88923693    -0.13311763
