# total energy = -19518.08208115 eV

CRYSTAL
PRIMVEC
        7.60600008     0.00000000     0.00000000
        0.00000000     7.60600008     0.00000000
       -1.89786986    -1.89786986     4.85670466
PRIMCOORD
23 1
Ti      3.76390702     6.74601900     1.31899800     0.48763098     0.05783339    -0.37540897
Ti      3.79443298     2.96010398     1.20295202    -0.51101131     0.03287568    -0.27870769
Ti      0.01873102     6.58654699     1.25670902    -1.15937872     1.25625664    -0.97928471
Ti     -0.07487498     2.86540300     0.99024600     0.53507299    -2.47747247     1.60861103
Ti      5.67460721     2.69332223     3.61444382    -0.25239835     0.70568966    -0.91304484
Ti      5.66719021    -1.16163778     3.54987482     0.73030515    -0.11040964     1.81410473
Ti      2.12089320     2.98554624     3.69768483    -0.99498618    -0.63914717    -0.41737247
Ti      1.89722924    -0.92580576     3.68817080    -0.85712744     0.35866054     0.62721545
O       4.07823799     4.92494900     0.85313898    -0.57390952    -1.87129585     0.33826834
O       3.65446999     1.00552901     0.82425802     0.00396516     0.35963602    -0.04679204
O      -0.21467800     4.61723502     0.67443598     0.20010980     1.74911622     1.30530894
O      -0.08391698     0.89032300     0.59724998     0.87546249    -0.00322879     2.03416399
O       5.52755520     4.65866521     4.13884482     1.03407853    -0.84295705    -1.28668540
O       5.80677325     0.86156422     3.94856882     0.32785974     0.67406688    -0.26184741
O       1.99302123     4.77530720     4.14459682    -0.62471094     1.20832843    -0.01332320
O       1.77666123     1.06155121     3.99177080     0.09169586    -0.01637870     0.98922742
O       3.83918524     2.83074220     3.23610081     0.61626795    -0.28795492    -0.60777662
O       3.77685921    -0.94851376     3.36790183    -0.49314780     0.32460061    -1.34387370
O       0.03661023    -1.06320277     3.22443881    -0.44069856    -0.36213847     0.39002441
O       5.73574602     6.80028301     1.73270502    -0.88437445    -0.09483338    -1.32655294
O       5.68573999     2.61409101     1.64757998     1.18791926     0.81759414    -0.53187042
O       1.82125997     6.59683298     1.66793801     1.84844979     0.00182240    -0.34068107
O       1.93616600     3.22916902     1.72712802    -1.14707445    -0.84066389    -0.38370309
