# total energy = -19960.53479920 eV

CRYSTAL
PRIMVEC
        7.60600008     0.00000000     0.00000000
        0.00000000     7.60600008     0.00000000
       -1.89786986    -1.89786986     4.85670466
PRIMCOORD
24 1
Ti      3.70612600     6.73636501     1.30735499     1.28167072     0.52621862    -0.79363376
Ti      3.80510199     3.10514701     1.27737498    -0.83104513    -1.22387461    -0.60841065
Ti      0.10323200     6.57741498     1.16896900    -1.55819914     1.41592092     0.29662931
Ti      0.01539101     2.91240902     1.16627898     0.59167096    -1.98858345    -0.47020789
Ti      5.72561423     2.80982822     3.57563681    -0.48303539    -1.35461860    -0.52562213
Ti      5.77682420    -1.09900076     3.61665281    -0.25027282     1.39260692     0.11769872
Ti      1.81535520     2.99416225     3.61354580     0.93486168    -1.93445966    -0.29931971
Ti      1.87973221    -0.95887876     3.69328181    -0.51896142     0.82820766     1.13297117
O       3.71621000     4.86538200     0.69476200     0.43865324     0.47794794     1.82901996
O       3.62052798     0.99452001     0.73589500     0.55261075    -1.39434499     1.03538954
O       0.13082299     4.66382098     0.60950202    -0.42434685     0.93285057     1.87164218
O       0.15338203     0.83849601     0.76495799    -0.40169774    -0.44858645     0.03907435
O       5.92053022     4.66759920     4.04255879    -0.59771717    -0.25590945    -0.56268665
O       5.63897220     0.86100822     4.12238883    -0.11365874    -0.11715673    -1.10977518
O       1.79356522     4.78843323     4.11917879     0.04549620     0.55031141    -0.73087671
O       1.79539623     1.05296721     4.30900383     0.59976120    -1.08871038    -2.74184163
O       3.74781522     2.83560820     3.23399480     0.62220128     0.44002519     0.48504985
O       3.74111922    -1.07132278     3.19688582     0.39134339     0.38846118     0.62384499
O       0.05445721     2.62673125     3.15536181    -1.58980803     0.65741924     0.04108316
O      -0.03406780    -1.01294479     3.19962383     1.40045367     0.30660005    -0.08250673
O       5.76018898     6.63235501     1.64253703    -0.93640820    -0.23846605    -0.31183791
O       5.67213198     2.86122303     1.63593602     0.71926406     0.22835415    -0.19035375
O       1.87758200     6.36156099     1.64347399     0.21367315     0.81708789     0.38832748
O       1.88158698     2.75660500     1.58571900    -0.08651020     1.08269837     0.56634173
