# total energy = -19518.88114747 eV

CRYSTAL
PRIMVEC
        7.60600008     0.00000000     0.00000000
        0.00000000     7.60600008     0.00000000
       -1.89786986    -1.89786986     4.85670466
PRIMCOORD
23 1
Ti      3.74304299     6.67127298     1.25414400     0.62207838    -0.64315270     0.53354164
Ti      3.76325798     2.85677899     1.18097302     0.24685711     0.74247111    -0.39408547
Ti      0.00615698     6.60489002     1.22138501    -0.44266288    -0.69355534     0.03851900
Ti     -0.03976402     2.78627999     1.11920401     0.13233036     0.72244478    -0.49325193
Ti      5.53576322     2.90210324     3.59576280     2.20889854    -1.31096074     1.31755228
Ti      5.80522123    -1.01263380     3.67924983    -1.11765407     1.00400227    -1.38374792
Ti      2.12224520     2.92727721     3.67887781    -1.34703178    -0.08856811     0.70938434
Ti      1.86947522    -0.89803480     3.66235484     1.30614172    -0.57185109     0.07852589
O       3.90570398     4.77183299     0.81585098     0.07744320    -0.83258033    -0.06751128
O       3.64097999     0.99329501     0.81190602    -0.24484727    -0.25927991    -0.19062526
O       7.27714701     4.73981301     0.76742401     0.59083818    -0.27486286    -0.23821717
O       0.13699499     0.84273499     0.76784497     0.12719021     0.59820671     0.21758200
O       5.68941523     4.71920621     3.95434384     0.81454172    -0.13696426     0.25846873
O       5.81211223     0.92199325     4.07251779    -0.28901756     0.64615986     0.06698909
O       1.91745223     4.76948022     4.12237179    -0.45024095     0.26231870    -0.15982703
O       1.98308423     1.00298621     3.97477479    -0.23376736     0.24280762     0.51770775
O       3.84863322     2.94519721     3.09754184    -1.34639878    -0.00444415     0.37789060
O       3.76359121    -0.98795477     3.30552882     0.15283748     0.41567194    -0.50890481
O       0.06800325    -0.67061178     3.16629482    -0.58108650    -1.02709773     0.00816094
O       5.68608798     6.64931302     1.71625602     0.10690985     0.34680801    -0.27456127
O       5.75494298     2.55625500     1.65982699     0.41354667     0.45545335    -0.26868244
O       1.88615600     6.28945498     1.54138300    -0.25195432     0.93116906     0.71615663
O       1.77508000     3.04694101     1.78476299    -0.49495194    -0.52419594    -0.86106380
