# total energy = -19961.50718606 eV

CRYSTAL
PRIMVEC
        7.60600008     0.00000000     0.00000000
        0.00000000     7.60600008     0.00000000
       -1.89786986    -1.89786986     4.85670466
PRIMCOORD
24 1
Ti      3.84531200     6.48741299     1.24253798    -0.29613232     2.13658109    -0.38871752
Ti      3.78584099     2.80380200     1.25090998    -0.12159574    -1.85050539    -1.36436180
Ti      0.01152903     6.72694698     1.15710601     0.30816534    -0.05376127     1.67346096
Ti     -0.00790601     2.93546300     1.18263299     0.22513950    -0.26681196     0.41888608
Ti      5.65921625     2.91799120     3.57820581     0.28258954    -0.76463659     0.38239466
Ti      5.70438920    -0.89653876     3.65714784     0.37241620     0.60587811    -0.34229366
Ti      1.87213222     2.80095122     3.59616281    -0.26779541    -0.29567337     0.49517717
Ti      1.92888224    -1.00117076     3.60391779    -0.50528932     0.21049398     1.44680682
O       3.81317099     4.63790998     0.89413699     0.19281147     0.73748573    -0.78028099
O       3.81833602     0.81944701     0.84531203     0.11532970     1.46434998    -0.15322366
O       0.00956498     4.77668301     0.74832998    -0.00957119     0.68335037    -0.05520700
O      -0.06416200     1.03360102     0.78949499     0.46360298    -1.34854025     0.16928458
O       5.61082024     4.82099425     4.11012383     0.25536489    -0.63315496    -0.84731045
O       5.67022721     0.99549623     4.13596683     0.15665866     0.56438718    -1.52309919
O       1.89349521     4.75761723     4.12168582     0.15245568    -1.64351583    -0.26756915
O       1.84947523     0.91235323     4.03339382     0.18220078     0.83831570     0.67335880
O       3.73081524     2.92890622     3.26281781     1.77765599    -0.20388753    -0.31217935
O       3.78333322    -0.79723278     3.22418083     1.43073382    -0.62096612     0.07310677
O       0.05227922     2.89255524     3.18161281    -1.70779060     0.30947969     0.32317262
O       0.06407421    -0.90899078     3.27268480    -1.46202853    -0.03762862    -0.52007060
O       5.75433898     6.56907700     1.69697100     0.14604694    -0.01356874    -0.17364569
O       5.69921602     2.70277302     1.57702700    -0.05410040     0.78220212     1.31773971
O       1.95312100     6.62863701     1.66149702    -1.13117114    -0.36507184    -0.74686949
O       1.91583601     2.85752498     1.58674597    -0.50569684    -0.23480146     0.50144012
