# total energy = -19916.82292993 eV

CRYSTAL
PRIMVEC
        6.41123335     0.00000000     0.00000000
        2.00203426     6.52318078     0.00000000
        0.00000000     0.00000000    11.60893854
PRIMCOORD
24 1
Ti      3.51016734     3.86563092     4.30683340    -0.20503913    -2.01623748     0.67994468
Ti      4.90310016     2.65755001     7.30210521     0.20503913     2.01623748    -0.67994468
Ti      6.34490587     2.65755225     1.49758952    -0.02521045    -0.68850029    -0.09982055
Ti      2.06836173     3.86562893    10.11134922     0.02521045     0.68850029     0.09982055
Ti      2.50915036     0.60404064     1.49763606    -0.20503913    -2.01623748    -0.67994468
Ti      5.90411717     5.91914048    10.11130267     0.20503913     2.01623748     0.67994468
Ti      1.06734462     0.60403820     7.30205866     0.02521045     0.68850029    -0.09982055
Ti      7.34592291     5.91914292     4.30687995    -0.02521045    -0.68850029     0.09982055
O       2.73414610     2.29692289     5.92395248     1.83091178     2.06662572    -0.68445825
O       5.67912141     4.22625810     5.68498613    -1.83091178    -2.06662572     0.68445825
O       1.88141669     2.29694921     0.11952055    -0.60588840    -0.15752409     1.16285588
O       6.53185089     4.22623184    11.48941773     0.60588840     0.15752409    -1.16285588
O       4.67810440     0.96466763     0.11948289    -1.83091178    -2.06662572    -0.68445825
O       3.73516311     5.55851337    11.48945540     1.83091178     2.06662572     0.68445825
O       5.53083388     0.96464137     5.92399015     0.60588840     0.15752409     1.16285588
O       2.88243358     5.55853970     5.68494846    -0.60588840    -0.15752409    -1.16285588
O       1.45068567     3.96776838     3.13586392     0.54528825     1.98076550     1.99913912
O       6.96258184     2.55541261     8.47307469    -0.54528825    -1.98076550    -1.99913912
O       4.22282918     2.55535179     2.66864230     0.67679534     1.82091198     1.05935172
O       4.19043833     3.96782921     8.94029611    -0.67679534    -1.82091198    -1.05935172
O       0.44966859     0.70617792     2.66860522     0.54528825     1.98076550    -1.99913912
O       7.96359885     5.81700309     8.94033319    -0.54528825    -1.98076550     1.99913912
O       3.18942132     0.70623873     8.47311170    -0.67679534    -1.82091198     1.05935172
O       5.22384619     5.81694226     3.13582684     0.67679534     1.82091198    -1.05935172
