# total energy = -19937.02319458 eV

CRYSTAL
PRIMVEC
        5.70850328     0.00000000     0.00000000
        2.85911786     5.36078793     0.00000000
        0.00000000     0.00000000    10.57269465
PRIMCOORD
24 1
Ti      3.76336850     3.17679797     3.92239433     1.74603295    -3.67302072     0.82259545
Ti      4.80425279     2.18399010     6.65030044    -1.74603295     3.67302072    -0.82259545
Ti      6.08802379     2.18399201     1.36391082    -3.94407988    -0.42188399     1.07738776
Ti      2.47959767     3.17679631     9.20878401     3.94407988     0.42188399    -1.07738776
Ti      2.33380979     0.49640418     1.36395323     1.74603295    -3.67302072    -0.82259545
Ti      6.23381161     4.86438410     9.20874165    -1.74603295     3.67302072     0.82259545
Ti      1.05003869     0.49640212     6.65025803     3.94407988     0.42188399     1.07738776
Ti      7.51758269     4.86438610     3.92243668    -3.94407988    -0.42188399    -1.07738776
O       2.81352139     1.88762460     5.39516518     1.30650578     1.90763018    -1.24720430
O       5.75409997     3.47316351     5.17752959    -1.30650578    -1.90763018     1.24720430
O       2.05426327     1.88764618     0.10885182     1.08476091    -1.15235395     1.00444373
O       6.51335816     3.47314197    10.46384261    -1.08476091     1.15235395    -1.00444373
O       4.32454115     0.79276951     0.10881751    -1.30650578    -1.90763018    -1.24720430
O       4.24308019     4.56801854    10.46387692     1.30650578     1.90763018     1.24720430
O       5.08379934     0.79274798     5.39519943    -1.08476091     1.15235395     1.00444373
O       3.48382196     4.56804015     5.17749528     1.08476091    -1.15235395    -1.00444373
O       1.94648066     3.26073507     2.85594859     0.65671116     1.85983284     1.79434014
O       6.62114069     2.10005304     7.71674612    -0.65671116    -1.85983284    -1.79434014
O       4.18167989     2.10000297     2.43043237     1.32652980     1.05958492     0.46004355
O       4.38594146     3.26078514     8.14226217    -1.32652980    -1.05958492    -0.46004355
O       0.51692184     0.58034108     2.43039862     0.65671116     1.85983284    -1.79434014
O       8.05069950     4.78044698     8.14229592    -0.65671116    -1.85983284     1.79434014
O       2.95638264     0.58039115     7.71677981    -1.32652980    -1.05958492     0.46004355
O       5.61123870     4.78039691     2.85591485     1.32652980     1.05958492    -0.46004355
