# total energy = -4988.96470884 eV

CRYSTAL
PRIMVEC
        4.03233208     0.00000000     0.00000000
        0.79847321     3.95248561     0.00000000
       -2.41543938    -1.97627286     5.17233756
PRIMCOORD
6 1
Ti      0.59871591     2.96451536     1.29308453    -0.00001980     0.00001980     0.00000000
Ti      1.81665000    -0.98830261     3.87925320     0.00001980    -0.00001980     0.00000000
O       0.19966055     0.98811562     0.84253159    -0.00048362    -0.00112537    -0.95396139
O       2.21570524     0.98809703     4.32980620     0.00048362     0.00112537     0.95396139
O      -0.19963409    -0.98809397     3.42870026    -0.00112537    -0.00048362    -0.95396139
O       2.61499976     2.96430652     1.74363748     0.00112537     0.00048362     0.95396139
