# total energy = -19903.58040442 eV

CRYSTAL
PRIMVEC
        8.41965545     0.00000000     0.00000000
        0.00002818     4.31458419     0.00000000
        0.00000000     0.00000000    12.72076145
PRIMCOORD
24 1
Ti      3.05173698     2.55681868     4.71931177     0.30347487    -0.37924017     2.79646653
Ti      5.36794685     1.75776570     8.00144981    -0.30347487     0.37924017    -2.79646653
Ti      7.26142058     1.75776724     1.64101820     0.30286707     0.37932502    -2.79741064
Ti      1.15826331     2.55681734    11.07974357    -0.30286707    -0.37932502     2.79741064
Ti      3.05172295     0.39952665     1.64106921     0.30347487    -0.37924017    -2.79646653
Ti      5.36796094     3.91505786    11.07969256    -0.30347487     0.37924017     2.79646653
Ti      1.15824922     0.39952499     8.00139880    -0.30286707    -0.37932502    -2.79741064
Ti      7.26143461     3.91505952     4.71936278     0.30286707     0.37932502     2.79741064
O       2.66488414     1.51923850     6.49130721     1.14316765     1.21364959    -2.23889201
O       5.75479975     2.79534588     6.22945437    -1.14316765    -1.21364959     2.23889201
O       1.54501289     1.51925586     0.13096736    -1.14301262     1.21375243    -2.23996005
O       6.87467107     2.79532852    12.58979384     1.14301262    -1.21375243     2.23996005
O       5.75478566     0.63805378     0.13092610    -1.14316765    -1.21364959    -2.23889201
O       2.66489816     3.67653060    12.58983516     1.14316765     1.21364959     2.23889201
O       6.87465704     0.63803642     6.49134847     1.14301262    -1.21375243    -2.23996005
O       1.54502672     3.67654802     6.22941311    -1.14301262     1.21375243     2.23996005
O       0.30592282     2.62437473     3.43619501    -2.23806514     0.70635661     0.14964623
O       8.11376101     1.69020972     9.28456657     2.23806514    -0.70635661    -0.14964623
O       4.51576108     1.69016944     2.92422620    -2.23741311    -0.70623499    -0.14962360
O       3.90392274     2.62441500     9.79653518     2.23741311     0.70623499     0.14962360
O       0.30590879     0.46708257     2.92418559    -2.23806514     0.70635661    -0.14964623
O       8.11377510     3.84750182     9.79657580     2.23806514    -0.70635661     0.14964623
O       3.90390872     0.46712284     9.28460712     2.23741311     0.70623499    -0.14962360
O       4.51577517     3.84746154     3.43615439    -2.23741311    -0.70623499     0.14962360
