# total energy = -19957.54843256 eV

CRYSTAL
PRIMVEC
        5.00863077     0.00000000     0.00000000
        0.79515912     5.27105872     0.00000000
        0.00000000     0.00000000     8.98980556
PRIMCOORD
24 1
Ti      2.28659829     3.12362446     3.33515377     1.10920080    -0.65923727     0.40497589
Ti      3.51719154     2.14743411     5.65465199    -1.10920080     0.65923727    -0.40497589
Ti      4.64356932     2.14743589     1.15971316    -1.66865917    -0.57158576     1.04704667
Ti      1.16022052     3.12362289     7.83009270     1.66865917     0.57158576    -1.04704667
Ti      1.88901884     0.48809520     1.15974921     1.10948028    -0.65388988    -0.40776117
Ti      3.91477100     4.78296353     7.83005665    -1.10948028     0.65388988     0.40776117
Ti      0.76264105     0.48809327     5.65461594     1.66855992     0.57748413     1.04858316
Ti      5.04114879     4.78296546     3.33518982    -1.66855992    -0.57748413    -1.04858316
O       1.86525229     1.85602932     4.58742901    -0.51177827    -0.12753602    -0.48287855
O       3.93853754     3.41502925     4.40237670     0.51177827     0.12753602     0.48287855
O       1.19907365     1.85605062     0.09255508     0.75664946    -0.80101669     0.15341418
O       4.60471623     3.41500799     8.89725042    -0.75664946     0.80101669    -0.15341418
O       3.54095808     0.77949983     0.09252592     0.51157387     0.12800730    -0.48236330
O       2.26283175     4.49155874     8.89727958    -0.51157387    -0.12800730     0.48236330
O       4.20713677     0.77947857     4.58745822    -0.75809159     0.80245522     0.15336482
O       1.59665301     4.49158005     4.40234754     0.75809159    -0.80245522    -0.15336482
O       0.66563598     3.20615671     2.42837080    -0.46813815    -0.30669210    -0.69991728
O       5.13815385     2.06490181     6.56143496     0.46813815     0.30669210     0.69991728
O       2.99779127     2.06485279     2.06656068     0.49520905    -0.69315733    -0.69541321
O       2.80599855     3.20620573     6.92324493    -0.49520905     0.69315733     0.69541321
O       0.26805652     0.57062729     2.06653193    -0.46794866    -0.30667744     0.69907447
O       5.53573331     4.70043123     6.92327363     0.46794866     0.30667744    -0.69907447
O       2.40841909     0.57067631     6.56146361    -0.49562994     0.69306657    -0.69524224
O       3.39537073     4.70038221     2.42834210     0.49562994    -0.69306657     0.69524224
