# total energy = -4960.48392845 eV

CRYSTAL
PRIMVEC
        4.84521061     0.00000000     0.00000000
       -0.00000686     2.60895988     0.00000000
       -2.42263221    -1.30453864     5.22702160
PRIMCOORD
6 1
Ti     -0.00020738     1.95680981     1.30675519    -0.01755421    -0.02047807    31.23053885
Ti      2.42277856    -0.65238842     3.92026599     0.01755421     0.02047807   -31.23053885
O       0.00005143     0.65222975     0.85143905     0.01617045     0.01849010   -22.21148563
O       2.42251964     0.65219154     4.37558224    -0.01617045    -0.01849010    22.21148563
O      -0.00001979    -0.65224744     3.46494985    -0.00181649     0.00014141    -1.27783412
O       2.42259076     1.95666873     1.76207144     0.00181649    -0.00014141     1.27783412
