# total energy = -4983.33019824 eV

CRYSTAL
PRIMVEC
        4.74632919     0.00000000     0.00000000
       -0.00000770     3.16421909     0.00000000
       -2.37319256    -1.58215783     5.25813511
PRIMCOORD
6 1
Ti     -0.00020399     2.37327927     1.31453350    -0.00494423    -0.00988307    10.07716978
Ti      2.37333296    -0.79121834     3.94360090     0.00494423     0.00988307   -10.07716978
O       0.00004995     0.79104618     0.85650712     0.00313520     0.00344245    -4.24216238
O       2.37307892     0.79101470     4.40162734    -0.00313520    -0.00344245     4.24216238
O      -0.00002034    -0.79104910     3.48557456    -0.00242327    -0.00009822    -1.89810039
O       2.37314915     2.37310992     1.77255995     0.00242327     0.00009822     1.89810039
