# total energy = -19516.17752084 eV

CRYSTAL
PRIMVEC
        5.93400000     0.00000000     0.00000000
        0.00000000     9.29699974     0.00000000
        0.00000000     0.00000000     4.64899994
PRIMCOORD
23 1
Ti      4.35692898     7.06860699     2.26285400    -0.89531733     0.62358351     0.22185697
Ti      4.50009502     2.39415399     2.49664001     0.01280538    -0.89704588    -1.89487134
Ti      1.25139302     7.02676399     1.98439601     2.11758500     0.94573488     2.56263181
Ti      1.46603800     2.24164198     2.41368798    -0.96583192     0.12949006    -0.78044220
Ti      3.12080198     4.48426701     0.27135500    -0.76225267     2.42084082    -1.02415896
Ti      3.02808801     0.09226999     0.00954202    -0.00513604     0.21073001     0.76959882
Ti      0.06820402     4.64535000     4.58967801     0.52791298     0.30743566     0.84260275
Ti      0.06542202     9.08530202     4.55757098     0.17769775     1.78479286    -0.99541993
O       4.62721102     5.55815498     1.10476202    -1.22229595    -0.11628641    -1.52912021
O       4.44923701     0.90624001     0.85281899     0.21039165     0.68022056    -0.38327989
O       1.58563100     5.57254998     1.00819998     0.31840939    -0.64410529    -1.55550771
O       1.42365900     0.94227899     0.63888898    -0.83717130     0.48338197     1.31460785
O       4.28388198     8.22283697     3.85938801     0.90937073    -0.25022859    -0.91804563
O       4.52081602     3.67673999     3.86751098    -0.45767170     0.40524843    -0.56020836
O       1.52152599     8.41170700     3.57655700    -1.35379456    -0.92068873     0.73925465
O       1.47232399     3.60968201     3.72250102     0.90317900     1.07815086     0.78197226
O       2.95457799     1.33212102     3.11855002     0.71578099     1.13782413    -0.56385470
O       5.78852097     6.26874102     3.20289801     1.26062572    -1.35238868     1.05350143
O       5.82164398     1.41781201     3.13631301     1.43564232    -1.33794216     0.56654511
O       2.85211800     8.19391299     1.49551502     0.04014136    -2.72519553     0.48524062
O       3.05198502     3.31430501     1.44703000    -0.72976008    -2.30619992     2.12284188
O       5.78972999     7.97618100     1.42499898    -0.79826381     0.88156861    -0.82580033
O       0.11877002     3.35573398     1.51064198    -0.60204691    -0.53892142    -0.42994466
