# total energy = -19960.01693953 eV

CRYSTAL
PRIMVEC
        7.60600008     0.00000000     0.00000000
        0.00000000     7.60600008     0.00000000
       -1.89786986    -1.89786986     4.85670466
PRIMCOORD
24 1
Ti      3.80145701     6.81924099     1.08403097     2.16116239     0.01205436    -0.37041357
Ti      3.78713102     2.86903998     1.20822702     0.28782585     0.19815397    -0.66248817
Ti     -0.05347802     6.63960601     1.22420299    -1.11664774    -1.28792519     0.96112885
Ti     -0.10423998     2.69018299     1.31665999    -0.21245650     0.71603964    -0.19915181
Ti      5.56517923     2.83104124     3.75944680     0.78656554    -0.77190870     0.07585271
Ti      5.64996025    -0.96321975     3.63132383     1.41235660     0.52549871     0.06302188
Ti      1.93020122     2.83446920     3.64194182     0.00079576    -0.23136260     0.11545980
Ti      1.99599922    -0.91879379     3.41134680    -0.93045970     0.46552720     2.08456766
O       4.05491302     4.75530398     0.92285401    -1.09351655     1.50519788    -1.29107145
O       4.11502703     1.10610798     0.65064698    -1.53641546    -1.80982847    -0.35270561
O      -0.28117801     4.75914401     0.86217098     0.64073611    -0.57173385     0.39821363
O      -0.09610298     0.79503198     0.78109102     0.26519165     2.70377412     0.35338798
O       5.55460023     4.69106922     4.13475983     0.29131715     0.39815501    -1.11677116
O       5.87313425     0.90103820     4.26352379    -0.21976307    -0.33976704    -0.39431044
O       2.24124923     4.91038424     3.90224279    -1.18844403    -1.86224814     1.08450277
O       1.86799024     1.04746424     4.01534580    -0.40090301    -0.96611294     0.28019301
O       3.84860523     2.45706623     3.36958080    -0.74901971     1.08531190    -0.92344830
O       3.86785320    -0.91024477     3.14083981    -1.18138532     0.58211186    -0.36738352
O       0.05013420     2.82584620     3.24806080    -0.32573549     0.49046845     0.15274287
O       0.01251922    -1.02717479     3.27343184     0.17692487    -0.20771924    -0.82275872
O       5.62933800    -0.57866702     1.70561998     1.13345968    -1.34516182    -0.03119238
O       5.61341098     2.79946402     1.71312800     2.01261685     0.00220961     0.48858100
O       1.91455498     6.71101101     1.49045402     0.38612687     0.15198439    -0.11325097
O       1.96760601     2.69859400     1.64262402    -0.60033276     0.55728090     0.58729417
