# total energy = -19961.11853303 eV

CRYSTAL
PRIMVEC
        5.04635869     0.00000000     0.00000000
        0.00002766     5.37085169     0.00000000
        0.00000000     0.00000000     9.03187243
PRIMCOORD
24 1
Ti      1.82907870     3.18276174     3.35076032    -0.01255650     0.23526605    -0.22905967
Ti      3.21730765     2.18809000     5.68111237     0.01255650    -0.23526605     0.22905967
Ti      4.35216970     2.18809184     1.16513994    -0.01092308    -0.23546943     0.22957517
Ti      0.69421665     3.18276010     7.86673286     0.01092308     0.23546943    -0.22957517
Ti      1.82906498     0.49733600     1.16517616    -0.01234361     0.21553052     0.22988473
Ti      3.21732138     4.87351589     7.86669664     0.01234361    -0.21553052    -0.22988473
Ti      0.69420292     0.49733400     5.68107615     0.01099687     0.21504946     0.22929286
Ti      4.35218343     4.87351790     3.35079654    -0.01099687    -0.21504946    -0.22929286
O       1.59721413     1.89116823     4.60889546    -0.44776395    -0.40642420    -0.04377253
O       3.44917222     3.47968356     4.42297723     0.44776395     0.40642420     0.04377253
O       0.92601420     1.89118986     0.09298819     0.44680493    -0.40612055    -0.04351002
O       4.12037220     3.47966193     8.93888424    -0.44680493     0.40612055     0.04351002
O       3.44915850     0.79425766     0.09295889     0.44806220     0.40655378    -0.04325780
O       1.59722785     4.57659408     8.93891354    -0.44806220    -0.40655378     0.04325780
O       4.12035847     0.79423603     4.60892477    -0.44727570     0.40609535    -0.04339407
O       0.92602783     4.57661576     4.42294792     0.44727570    -0.40609535     0.04339407
O       0.18336269     3.26685647     2.43973412    -0.16444191     0.10259528    -0.10513245
O       4.86302366     2.10399527     6.59213856     0.16444191    -0.10259528     0.10513245
O       2.70654608     2.10394522     2.07623093    -0.16432004    -0.10282745     0.10513862
O       2.33984027     3.26690652     6.95564160     0.16432004     0.10282745    -0.10513862
O       0.18334896     0.58143057     2.07620209    -0.16463782     0.10293750     0.10521858
O       4.86303739     4.78942117     6.95567044     0.16463782    -0.10293750    -0.10521858
O       2.33982655     0.58148063     6.59216735     0.16442571     0.10278092     0.10496147
O       2.70655980     4.78937112     2.43970528    -0.16442571    -0.10278092    -0.10496147
