# total energy = -19073.57261299 eV

CRYSTAL
PRIMVEC
        5.93400000     0.00000000     0.00000000
        0.00000000     9.29699974     0.00000000
        0.00000000     0.00000000     4.64899994
PRIMCOORD
22 1
Ti      4.42724600     6.96001701     2.40336400     0.81436843     0.70973992    -0.37909850
Ti      4.37122999     2.27342802     2.22648899     2.19483717    -0.17952143    -0.69613518
Ti      1.55151399     7.18345200     2.50476097    -0.74537054     0.12867193    -1.00886089
Ti      1.63120999     2.42553901     2.20443399    -1.48288070     0.66187059    -0.45678339
Ti      2.98652199     4.67951802     4.61434698    -0.13399643     0.00180594    -0.18932608
Ti      2.93205202     0.06055698     0.06997300     1.39452651     0.41419690     0.46433832
Ti      5.78533199     4.48348902     4.43463500     1.20918898    -0.25689187     0.86308931
Ti      0.00345399     9.16194000     0.03610000    -1.47258266    -0.65183171     1.57985580
O       4.46905301     5.49713000     0.84736698     0.35862943     0.50860990     0.73385739
O       4.47930698     0.70174798     1.13222701     0.44451305     1.50007573    -1.07775208
O       1.40586599     0.88055200     0.97294900    -0.19371547     0.19708104    -0.55508621
O       4.26041699     8.18590299     3.96612898     1.48606064     0.85419175    -0.68946188
O       4.32288399     3.93661899     3.53557000     0.59475552    -1.51154105    -1.00002426
O       1.53795901     8.20931401     3.97805198    -0.23724760     1.26111834     0.52551131
O       1.63548902     3.76923202     3.56576401    -1.46673674     0.31738969     0.45177847
O       2.93596598     6.06074499     3.22605502    -0.49929351     0.01297765    -0.23955208
O       3.05227300     1.51794399     3.21045800    -1.11956492    -1.45424580     1.65245196
O       0.08742098     6.21645497     3.28565800    -0.47768235    -1.80887587     0.09337505
O       3.03770300     8.13918199     1.56660200    -1.06751806    -2.27091717     1.00999937
O       3.10382301     3.04189398     1.17218201    -0.95628464     1.46137316    -0.63429318
O       5.89878500     8.07983402     1.64122202     0.70881947    -0.95252568    -0.36777330
O       5.89124100     3.04923399     1.23503699     0.64717390     1.05724778    -0.08010969
