# total energy = -4990.15942586 eV

CRYSTAL
PRIMVEC
        2.95566628     0.00000000     0.00000000
        0.46195340     4.60798828     0.00000000
       -0.00000308    -0.00006010     4.63690003
PRIMCOORD
6 1
Ti      1.70880835     2.30396409     2.31845002     0.00000000     0.00000000     0.00000000
Ti      0.00000000     0.00000000     0.00000000     0.00000000     0.00000000     0.00000000
O       1.56786045     0.89801737     0.90366351    -0.54810129     0.17202975     0.15826251
O       1.84975631     3.70991080     3.73323647     0.54810129    -0.17202975    -0.15826251
O       0.14094664     1.40592235     3.22211447     0.54823730    -0.17210688     0.15832756
O       0.32100389     3.20200572     1.41478551    -0.54823730     0.17210688    -0.15832756
