# total energy = -39031.83701044 eV

CRYSTAL
PRIMVEC
        7.60600008     0.00000000     0.00000000
        0.00000000     7.60600008     0.00000000
       -3.79573973    -3.79573973     9.71340985
PRIMCOORD
46 1
Ti      1.92483446     4.67865446     6.06848664     1.84336544    -0.87609550    -0.94118454
Ti      3.88701900     6.88512901     1.34411498    -1.65263399     0.57720208    -1.00623631
Ti      2.13704745     0.73345845     6.10576263    -1.08535484    -1.33223482     1.63877445
Ti      3.66991699     2.97943302     1.27180301    -1.30313018    -0.79098501     0.73882836
Ti     -1.72321555     4.72952643     5.94373364    -2.00063705    -1.16006572    -0.96528479
Ti      0.08263801     6.65555599     1.26392901    -0.51572620    -0.57839970    -1.45818910
Ti     -1.69056753     0.96508145     6.02975960    -0.30540115     1.26047942    -1.67026585
Ti     -0.22327502     2.84742399     1.29008799     1.49529656     0.84803498    -1.47690237
Ti      3.83721146     0.95441546     8.55495063    -1.42717876     2.15905923    -0.48610529
Ti      5.72355399     2.83238800     3.66430898    -4.22537256    -0.12478108     0.87555043
Ti      3.84899343    -2.64375557     8.38909965    -0.16560790    -3.20234411    -1.67204069
Ti      5.55031501    -1.02726502     3.50520602     1.62580503    -0.01310183     2.37700529
Ti     -0.14255257     1.12414145     8.40302162     2.95107731    -0.71916585    -0.62541748
Ti      1.68960501     2.73806501     3.71800100     2.51202374     0.39496196    -2.48171557
Ti      0.01582647    -2.80762954     8.49775964     0.19269191    -0.13939318     1.18227955
Ti      1.73343502    -1.22344701     3.71201299     0.16477332    -0.37557018     0.88080551
O       2.23240445    -1.18174757     5.86216160    -1.30987650     2.62931391    -1.95354650
O       3.78261402     1.14542601     1.08661500    -0.38646934    -2.14816957    -2.04030301
O      -1.95719053     2.78908643     5.75435364     0.22822766    -0.57836010    -1.88915732
O       0.02694100     4.78967198     0.99973399    -0.54045431    -0.09834062    -2.18973610
O      -2.05575254    -1.17931855     5.49394361     0.67433196     3.26248198     0.41007131
O       0.14760299     1.08272200     0.64349599    -0.15099760    -1.02328684     1.46674162
O       3.69397043     2.93829944     8.85173561     0.54498074    -1.26123275     1.50353258
O       5.71924702     4.63224598     3.85235799    -0.72270600     0.45183684     0.47688916
O       3.70688547    -0.91249055     8.84184264     0.47424710     1.60063572     0.22606741
O       5.74864699     0.97640997     4.03797300     0.25904234    -1.70059280     0.10227904
O       0.28935645     2.79230743     9.00094561    -0.99370449     2.03149955     0.92315390
O       2.02344400     4.54610201     3.99309998    -0.71953866     1.26654131     0.87330354
O      -0.15139756    -0.68581155     9.02612561    -0.20049418    -0.42696038    -0.39747727
O       1.72932897     0.99289099     4.28906199     0.11986976    -0.95359783    -1.02467112
O       1.75216747     0.71135647     8.02695662     2.49557536     0.49484473     0.06282493
O       3.74064799     2.85523401     3.20507198     0.59297297    -0.38154208     0.49801130
O       1.90382046    -2.85487756     7.88315762    -0.80965714     0.39868877     2.88302275
O       3.78431897    -0.98609900     3.38494599    -1.61499046     0.16752517    -1.26128778
O      -1.93485756     1.26463345     7.95691260    -0.17486002    -0.94705772     0.51678576
O      -0.12583200     2.88028002     3.18411201     1.26778290    -0.65946969    -0.32088382
O      -1.76399453    -2.75610255     7.78196861     0.30767529     0.31701611     3.21958208
O      -0.18002801    -1.32511900     3.47722699     3.25699473     1.56426051    -1.32848718
O       3.86811446     4.53030845     6.40146365    -0.69488717    -0.16235905     0.81576994
O       5.67434400     6.59876501     1.49109602     0.34035891     0.22227555     1.13516561
O       3.89280047     0.95233844     6.41252261     0.02634610     0.13886688     0.73267674
O       5.55665699     2.99130601     1.42927801     1.92934856     0.12926843     0.83181877
O       0.05146344     4.42822947     6.15160864     1.26133946     0.34598937     0.71479805
O       1.88131302     6.37020600     1.78242302     0.33379591     1.19745677    -0.43554195
O       0.27629646     1.48203545     6.36034864    -2.65527229    -1.30510145     0.38394143
O       1.86779101     3.11098601     1.66908299    -1.24297226    -0.50003218     0.15475399
