# total energy = -19071.54333278 eV

CRYSTAL
PRIMVEC
        5.17600016     0.00000000     0.00000000
        0.00000000     5.50899976     0.00000000
        0.00000000     0.00000000     9.26300011
PRIMCOORD
22 1
Ti      1.74119001     3.39610698     3.56950698     0.18297674     1.71236588    -1.14846027
Ti      3.80763003     2.34756099     5.97524201     0.14614104     0.01697880     0.28957446
Ti      4.27137398     2.25665903     1.11575102     0.21255883    -0.75858139     1.59626330
Ti      1.32661699     2.67259600     7.73966899    -0.88879521     2.22408065    -0.60083926
Ti      1.71471903     0.73274899     1.56043798    -0.40052403     1.35176596     0.11048574
Ti      3.10660098     5.46400202     7.99078502    -0.20861142    -2.40919038    -0.90400149
Ti      0.54621401     5.48366302     6.19195698     1.56486010    -1.60330864    -0.11549040
Ti      4.38295402     5.09647800     3.41227900    -0.70529628     1.62706950     1.28995893
O       3.22317301     3.51478302     4.62465901     0.49822316     0.39783054     0.99221453
O       0.87663001     2.05672099     0.15221598    -0.37326492     0.39184115     0.53136932
O       5.15995000     3.59185202     6.52672700     0.80029729    -1.38588040    -1.64747738
O       3.28819800     0.63426698     0.37731798     0.20906059     0.49970334    -0.48498351
O       1.30907498     4.72512802     7.85046198     0.79832783     0.18992412     2.19719307
O       4.47769601     0.90930199     4.94536498    -2.57277868     1.13814860     0.00691447
O       0.90719698     5.16431503     4.42053598     2.06389778    -2.60194837    -0.20857542
O       5.08869898     3.59107498     2.79164998     0.89912642    -1.91150330    -2.05079620
O       4.65754600     0.91648801     7.32192302    -0.81064110     1.53018104     1.15264063
O       2.60229803     1.97084801     2.58002802    -0.51141961     1.44711998    -0.62286257
O       3.10629401     3.35013401     7.49827103    -0.22122474    -0.16213203     1.65863623
O       5.06764699     0.91581801     2.23121999     0.14031878    -0.54248754    -0.32502407
O       2.20356498     1.14023600     6.81430398    -0.86339784     1.15351712    -1.62548005
O       2.58317203     5.01550700     2.61060098     0.04016502    -2.30549466    -0.09126006
