# total energy = -19947.73752125 eV

CRYSTAL
PRIMVEC
        5.75226348     0.00000000     0.00000000
        0.61071948     6.09161027     0.00000000
        0.00000000     0.00000000    10.30820980
PRIMCOORD
24 1
Ti      2.44683071     3.60988264     3.82427241     0.10213737    -1.21756178     0.72738489
Ti      3.91615244     2.48172768     6.48393775    -0.10213737     1.21756178    -0.72738489
Ti      5.20976373     2.48172975     1.32979150    -0.13158320     0.13085172    -0.30318871
Ti      1.15321943     3.60988086     8.97841883     0.13158320    -0.13085172     0.30318871
Ti      2.14147109     0.56407756     1.32983285     0.10213737    -1.21756178    -0.72738489
Ti      4.22151207     5.52753299     8.97837748    -0.10213737     1.21756178     0.72738489
Ti      0.84785973     0.56407532     6.48389645     0.13158320    -0.13085172    -0.30318871
Ti      5.51512337     5.52753518     3.82431376    -0.13158320     0.13085172     0.30318871
O       2.03567249     2.14495955     5.26020069     1.33043711     1.39619747    -0.27014642
O       4.32731065     3.94665083     5.04800946    -1.33043711    -1.39619747     0.27014642
O       1.27058487     2.14498418     0.10612880    -0.89257371     0.60869656     0.38945183
O       5.09239833     3.94662625    10.20208112     0.89257371    -0.60869656    -0.38945183
O       4.02195102     0.90084551     0.10609538    -1.33043711    -1.39619747    -0.27014642
O       2.34103212     5.19076486    10.20211454     1.33043711     1.39619747     0.27014642
O       4.78703870     0.90082094     5.26023417     0.89257371    -0.60869656     0.38945183
O       1.57594438     5.19078944     5.04797604    -0.89257371     0.60869656    -0.38945183
O       0.58046722     3.70526282     2.78450470     0.31132420     0.35346948     0.65250689
O       5.78251586     2.38634756     7.52370545    -0.31132420    -0.35346948    -0.65250689
O       3.32437588     2.38629083     2.36963315     0.55356977     0.72006162     0.04680875
O       3.03860726     3.70531949     7.93857689    -0.55356977    -0.72006162    -0.04680875
O       0.27510759     0.65945750     2.36960020     0.31132420     0.35346948    -0.65250689
O       6.08787549     5.43215282     7.93860978    -0.31132420    -0.35346948     0.65250689
O       2.73324763     0.65951423     7.52373834    -0.55356977    -0.72006162     0.04680875
O       3.62973552     5.43209614     2.78447181     0.55356977     0.72006162    -0.04680875
