# total energy = -39022.48805652 eV

CRYSTAL
PRIMVEC
        5.93200024     0.00000000     0.00000000
        0.00000000     9.29399984     0.00000000
        0.00000000     0.00000000     9.29399984
PRIMCOORD
46 1
Ti      4.33861399     6.92298799     6.93238703     2.19172793     0.21188675     1.40065756
Ti      4.49640798     7.22792897     1.83982801     0.96704677     0.79651854     1.11383907
Ti      4.34359101     2.48208203     6.90150302    -0.92268288     1.82437089    -0.02465946
Ti      4.63299101     1.97479800     2.94207501    -0.08463586     1.35755531     1.68344662
Ti      1.49268900     7.40094702     6.60831898     0.28751063     0.39612153     1.51541905
Ti      1.63465398     6.53850802     2.38437500     0.35005737     1.18986070     1.13573074
Ti      1.15031799     2.03391202     8.45734600     1.12074968     0.95521017    -2.11695868
Ti      1.53373601     2.30211398     4.19613900    -1.13514992    -1.47928964    -0.46360890
Ti      2.88798500     4.62294500     4.47677101     5.75332368     1.96254460     0.82119214
Ti      2.96514899     4.89425100     9.03294601    -0.36100924     1.00295840    -0.83487324
Ti      2.94813197     8.97076901     4.04234702     1.46227947     0.13553601     1.19146070
Ti      2.88260401     0.39410899     0.20912000     2.06513885    -1.94933504    -1.19269098
Ti      0.11701601     4.70806301     4.48649803    -5.36442619     0.84468046    -0.77583967
Ti      5.84173599     5.15946401     0.00167998     0.04987479     2.08685877    -1.64590695
Ti      0.09700301     9.01129398     4.32201698    -0.58244738     0.45432232     0.16332502
Ti      0.09311001     8.97364498     9.18498599    -2.70587934    -0.88376279    -1.14212970
O       4.53371101     4.87806400     5.65364401    -0.19534812     2.48001941    -0.12887916
O       4.31446800     5.69225099     0.91917199    -1.15194489    -3.56043284    -1.90554810
O       4.55448899     0.84455700     4.50103802    -1.37002465     1.65085864     3.25901870
O       4.60023298     0.54099198     0.92405302    -0.09739111     1.39646512     1.12522546
O       1.43561999     5.55312198     5.36770499     0.99529034     2.05724916     2.09318214
O       1.58823100     5.78016198     0.83792900     1.32062217    -3.32799012    -2.12041553
O       1.58440701     0.58366002     5.13102501     0.66579101    -0.14130531     0.90330909
O       1.16021202     1.29022600     0.74785298     0.50292031    -1.24531248     0.28469579
O       4.27464101     8.33142002     8.24754198     1.56915358     1.24325662     1.12765850
O       4.59595299     8.50468101     3.14281300     0.29263613    -1.56338737     0.22069046
O       4.45393801     4.24990499     7.88658097    -0.08316005    -0.96360586     2.26466424
O       4.30329400     3.97197099     3.39213301     0.24471589    -3.06357108    -2.40074301
O       1.59867702     9.24932299     7.87966500    -0.62615307    -1.09041245     1.20534801
O       1.45567300     8.21275303     3.25568201    -0.43393707     0.32736352     1.01706400
O       1.13861402     3.88819800     8.99214798     1.60817652    -2.81565057    -1.59719173
O       1.59508898     4.07941398     3.38094298    -0.87815573    -1.77215588    -1.97579658
O       2.91556201     6.50594901     8.00257499    -2.68514132    -2.31755751    -0.72274919
O       3.28027198     6.17173500     3.16828998    -0.83834449     0.76638906     0.77244144
O       3.15646303     2.02062999     8.35144800    -2.08903366     0.42194210    -0.13473048
O       2.82391799     1.44651702     3.05617002     0.67813771    -0.60966149    -1.64257763
O       0.05848499     6.48774399     8.06888799     0.92531517    -0.13229950    -1.96912277
O       5.92024198     5.91183298     2.95881897    -0.27034286     0.75696622     0.79817768
O       5.29798398     1.39753299     7.92122700     2.80015118     0.41953503    -1.34225982
O       3.35683901     7.92418801     5.84858000    -3.53744228     0.39902250    -2.46352552
O       2.95644498     7.91100499     1.35417898    -0.71316875     0.94683043    -1.12548026
O       2.70785402     2.94161399     5.38692201     1.51251704     0.14035272     2.63213878
O       5.72156502     7.96609203     5.82212902     1.84770726    -1.07823802     0.52870462
O       0.58810098     7.65010500     0.99338799    -3.26833716     2.13223104     0.50039600
O       5.77848899     2.85543700     4.84722101     1.05140572     0.03044342     1.78415908
O       0.39310599     1.31862499     3.05015798    -0.86809217    -0.39338176    -1.81625700
