# total energy = -19517.88390653 eV

CRYSTAL
PRIMVEC
        7.60600008     0.00000000     0.00000000
        0.00000000     7.60600008     0.00000000
       -1.89786986    -1.89786986     4.85670466
PRIMCOORD
23 1
Ti      3.75505097     6.74610600     1.36318002     0.74535306     0.58601788    -1.43476531
Ti      3.81626001     2.97698700     1.17449599    -0.96317185    -0.11943704     0.54249474
Ti      0.04460202     6.58263399     1.24688501    -1.01286538     0.57606899    -0.37000708
Ti     -0.06585098     2.84695000     0.93510399     0.79572227    -1.03258858     2.39916616
Ti      5.68584223     2.70523120     3.61140179    -0.61704339     0.93086542    -0.08990765
Ti      5.63202125    -1.16039575     3.56413181     1.43977100    -0.43388642     0.64662369
Ti      2.12492321     3.00127322     3.68951481    -0.86368349     0.60742746    -0.42997448
Ti      1.88714122    -0.87452578     3.69939984    -0.99123211    -0.25526024     0.58519795
O       4.01564701     4.94631099     1.00129199    -0.51014048    -2.64226868    -1.18555436
O       3.55099800     1.02323697     0.80139402     0.56363873     0.82815238     0.26688369
O      -0.25556599     4.67724499     0.69766602     0.61429128    -0.32980221     1.13657329
O      -0.09348001     0.86780698     0.61257998     0.81394086    -0.03466260     1.64942705
O       5.49320821     4.60846020     4.15662882     1.20767280     0.46672327    -1.90366708
O       5.90371820     0.86240821     3.97931682     0.22340375     0.40480286    -0.93210546
O       2.01581024     4.87674624     4.12023180    -0.20590019    -1.31970660     0.20951670
O       1.71269720     1.09212024     3.96265583     0.34077620     0.48814957     1.41227818
O       3.84267024     2.70160121     3.30632279     0.14450299    -0.01153706    -1.14487898
O       3.80470823    -0.91170779     3.33693882    -0.31046828     0.68741682    -0.59801491
O       0.09491524    -1.06108479     3.22086379    -1.38606552    -0.16815407    -0.05627838
O       5.73507598     6.63952901     1.64740101    -0.17540741     0.54569397     0.51220431
O       5.73352401     2.59974702     1.69353400     0.55722228     0.72519380    -1.29756863
O       1.90997300     6.51998501     1.63347799     0.00256159     0.29213579    -0.12775842
O       1.85232099     3.18844401     1.71096599    -0.41287870    -0.79134497     0.21011551
