# total energy = -19961.35372616 eV

CRYSTAL
PRIMVEC
        7.60600008     0.00000000     0.00000000
        0.00000000     7.60600008     0.00000000
       -1.89786986    -1.89786986     4.85670466
PRIMCOORD
24 1
Ti      3.83486699     6.66510298     1.17603400    -1.14537418    -0.81945022     0.07945457
Ti      3.77152400     2.75285901     1.23665300     0.40599122     0.81911263    -1.22922174
Ti     -0.09494302     6.71420100     1.17433502     1.13265749    -0.08523647     0.47120625
Ti      0.00828099     2.85498101     1.21634502    -0.37527193     0.28036939     1.21229564
Ti      5.64962020     2.87311724     3.64039483     0.71264141     0.46310882     0.05141797
Ti      5.67734020    -0.85048076     3.61633980     0.28087975    -0.43351849     0.41629492
Ti      1.96873522     2.75522925     3.63925583    -1.44082772    -0.62219151     1.12858281
Ti      1.95417623    -1.03856978     3.59869682    -0.51669191     0.92216506    -0.34070575
O       3.91377197     4.67881501     0.81929000    -0.69275752     0.18740752    -0.30221812
O       3.93390802     0.90214101     0.75915202    -0.43166987     0.35411663     0.14357971
O      -0.06282599     4.81560600     0.88446998     0.31285015     0.34987405    -0.50620309
O      -0.05984598     1.00474302     0.80571401     0.04821592    -0.23458985    -0.45374691
O       5.46049320     4.88711325     3.99963284     0.90870558    -1.25201200     0.62563936
O       5.59136022     1.03779321     4.16159880     0.11268301    -0.37047836    -0.94017796
O       2.08627623     4.71194420     4.06851182    -0.69149151    -0.24514552    -0.25056130
O       2.10656324     0.88773622     4.03203081    -0.99395106     0.45205358     0.90169933
O       3.74747522     2.72335722     3.25009882     1.07989098     0.44123001    -0.49266494
O       3.75599820    -0.88663775     3.21207379     1.79885911    -0.01560249    -0.36638671
O       0.01339120     2.74609321     3.18629381    -0.77304719     0.54282616     0.82935308
O       0.02855525    -0.75854876     3.24681083    -0.95173455    -0.63145931    -0.34785496
O       5.69535900     6.68398001     1.64530002     0.29016633     0.10458480     0.37984309
O       5.61412400     2.79974099     1.74338202     0.92817244     0.15922745    -0.21854256
O       1.96038798     6.79067002     1.63293902    -0.81119132    -0.69026098    -0.63010203
O       1.85809198     2.74766201     1.60662298     0.81229458     0.32386939    -0.16098017
