# total energy = -19876.81099990 eV

CRYSTAL
PRIMVEC
        9.58808151     0.00000000     0.00000000
        0.00002981     3.40153940     0.00000000
        0.00000000     0.00000000    15.25382899
PRIMCOORD
24 1
Ti      3.47523583     2.01574899     5.65906189     0.25243357     0.05791592     1.98109306
Ti      6.11287510     1.38579009     9.59476756    -0.25243357    -0.05791592    -1.98109306
Ti      8.26911304     1.38579119     1.96779189     0.26626586    -0.05832344    -1.98279230
Ti      1.31899796     2.01574802    13.28603769    -0.26626586     0.05832344     1.98279230
Ti      3.47522132     0.31497935     1.96785306     0.25181034     0.05882892    -1.98320805
Ti      6.11288968     3.08655986    13.28597652    -0.25181034    -0.05882892     1.98320805
Ti      1.31898338     0.31497819     9.59470639    -0.26605143     0.05856384    -1.98216109
Ti      8.26912761     3.08656102     5.65912306     0.26605143    -0.05856384     1.98216109
O       3.03469868     1.19773975     7.78391236     0.63502672     0.52158704    -2.05230853
O       6.55341231     2.20379940     7.46991709    -0.63502672    -0.52158704     2.05230853
O       1.75941883     1.19775355     0.15704675    -0.63382782     0.52190200    -2.05048407
O       7.82869223     2.20378559    15.09678225     0.63382782    -0.52190200     2.05048407
O       6.55339774     0.50302963     0.15699721    -0.63612278    -0.52141014    -2.05193109
O       3.03471326     2.89850945    15.09683179     0.63612278     0.52141014     2.05193109
O       7.82867765     0.50301589     7.78396183     0.63262197    -0.52180147    -2.05158630
O       1.75943321     2.89852326     7.46986762    -0.63262197     0.52180147     2.05158630
O       0.34837507     2.06900908     4.12043983    -1.53135013     0.53077565     0.55687647
O       9.23973592     1.33252999    11.13338955     1.53135013    -0.53077565    -0.55687647
O       5.14242851     1.33249846     3.50652335    -1.53357362    -0.53116517    -0.55740483
O       4.44568249     2.06904068    11.74730584     1.53357362     0.53116517     0.55740483
O       0.34836050     0.36823938     3.50647466    -1.53141389     0.53111298    -0.55700811
O       9.23975050     3.03329976    11.74735453     1.53141389    -0.53111298     0.55700811
O       4.44566797     0.36827091    11.13343817     1.53332319     0.53097954    -0.55682659
O       5.14244302     3.03326817     4.12039115    -1.53332319    -0.53097954     0.55682659
