# total energy = -19961.04273542 eV

CRYSTAL
PRIMVEC
        5.93400000     0.00000000     0.00000000
        0.00000000     9.29699974     0.00000000
        0.00000000     0.00000000     4.64899994
PRIMCOORD
24 1
Ti      4.41006102     7.00935602     2.20393397     0.95851713     0.54061141     0.77854884
Ti      4.44824401     2.32130300     2.29210602     0.00467375     0.13647781     0.42600161
Ti      1.48978298     6.91187500     2.32290101    -1.02744946     0.87572680     0.79545051
Ti      1.48976303     2.31667201     2.40630400    -0.06608483    -0.84197798    -0.55037749
Ti      2.94008001     4.66529299     4.64116003     1.75274661    -0.63813853    -0.10432923
Ti      2.95573001     0.01004299     0.06917998    -0.11109972     0.19924051    -0.98281560
Ti      0.05421400     4.62656198     4.62483401    -1.85599984    -0.40189057    -0.42498680
Ti      5.93069302     9.29047700     4.63756802    -0.07851124    -0.29996943    -0.48269369
O       4.44019999     5.51757402     0.81405802    -0.06889608     0.66434631     0.76284068
O       4.49003102     0.90696202     0.87749500    -0.20243717     0.26440566     0.57491971
O       1.46269900     5.50142300     0.86851502     0.23535938     0.91576661     0.42070385
O       1.46075501     0.91622500     1.02001698     0.27811685    -0.51136767    -0.78547128
O       4.43359898     8.34284702     3.70773702     0.36624427     0.38395763     0.49533066
O       4.44419999     3.79458200     3.66412102    -0.07282087    -0.10918142     0.50013734
O       1.54617099     8.34953799     3.75224702    -0.56963454     0.49008407     0.21625042
O       1.48159898     3.68961000     3.76785902     0.20604828     0.50142958     0.21132882
O       2.93313599     6.12391902     3.18552099     0.03024647    -0.87332848     0.15587139
O       3.04539602     1.34757701     3.28320500    -0.40746627     1.02535864    -0.70054668
O       0.00627102     6.10332497     3.21482403     0.28408181    -0.34622822    -0.23697918
O       5.92388700     1.49245701     3.36233700     0.14384325    -0.14711909    -0.68835733
O       2.96675700     8.00196998     1.46360701    -0.09147783    -1.24403875     0.08697660
O       2.95586299     3.32574000     1.53083401     0.06279433    -0.54058441    -0.61134685
O       5.88009002     7.89845799     1.37271500     0.35620591    -0.51119695     0.29714970
O       0.04041200     3.17487702     1.42111498    -0.12700020     0.46761648    -0.15360573
