# total energy = -19958.27438118 eV

CRYSTAL
PRIMVEC
        5.93400000     0.00000000     0.00000000
        0.00000000     9.29699974     0.00000000
        0.00000000     0.00000000     4.64899994
PRIMCOORD
24 1
Ti      4.44877600     6.62650601     2.27932797     1.03076001     3.09719161     1.69895912
Ti      4.46703399     2.48810999     2.29713802     0.42116897    -2.44046580     1.56976576
Ti      1.47487600     6.76185299     1.99213401    -0.70893414     2.90011442     1.49394287
Ti      1.54244998     2.46908300     2.28803299    -0.10314627    -1.99541719     1.53498387
Ti      2.98049497     4.68862701     4.52207202    -1.43380655    -1.63203945    -0.25704973
Ti      2.98961503     9.24930701     0.24980399    -0.89809669    -1.99876965    -1.93508109
Ti      5.88965299     4.62936800     0.06705300     0.88732891    -0.62658630    -1.87800361
Ti      5.87643901     0.01989198     0.25203501     1.18826045    -1.63965891    -2.62682046
O       4.39555802     5.70063897     0.69076798     0.36949851    -0.26365130     0.02266994
O       4.53205601     0.97615401     1.09418398    -1.39189395    -0.10577111    -1.24832067
O       1.43208397     5.72978198     0.46932900     0.43205502     0.57178373     1.84452500
O       1.44738799     0.92135998     1.11636799     0.89571662     0.15928221    -0.72975108
O       4.48588900     8.29647903     3.92051401    -0.82032645     1.27517482     0.90714904
O       4.43010900     3.89077102     3.66550000     0.58167888     0.06354381     0.55204151
O       1.43132498     8.25933697     3.97140001     1.38709216     1.92041603     0.82215116
O       1.42236299     3.76729000     3.73311398     0.22048092    -0.18720183     0.51541356
O       2.90108198     5.84585400     3.01764602    -0.04941096     0.71508036    -0.50409119
O       3.08048201     1.61483999     3.13387298    -1.20353924    -0.35585315     1.01467364
O       0.13144303     5.96323302     3.07669199    -0.87857224    -0.38628937    -0.89726134
O       5.85849498     1.55176699     3.26944798     0.22619211     0.84405646    -0.16217188
O       3.10499398     7.86049598     1.56903002    -0.84590328     0.08424737    -0.12122807
O       2.89753803     3.53255898     1.51271799     0.37809372     0.08269622    -1.54655949
O       5.88147599     7.88192400     1.56488900     0.29687974    -0.64401273     0.10121563
O       0.02861103     3.34931802     1.35829402     0.01842350     0.56212923    -0.17115274
