# total energy = -4959.46975727 eV

CRYSTAL
PRIMVEC
        4.82049015     0.00000000     0.00000000
       -0.00000683     2.59564886     0.00000000
       -2.41027184    -1.29788284     5.20035312
PRIMCOORD
6 1
Ti     -0.00020633     1.94682609     1.30008807    -0.01782778    -0.02088508    32.11681438
Ti      2.41041745    -0.64905990     3.90026463     0.01782778     0.02088508   -32.11681438
O       0.00005117     0.64890205     0.84709497     0.01681913     0.01900560   -22.91319702
O       2.41015985     0.64886403     4.35325784    -0.01681913    -0.01900560    22.91319702
O      -0.00001969    -0.64891965     3.44727153    -0.00181751     0.00006248    -1.19612803
O       2.41023060     1.94668572     1.75308128     0.00181751    -0.00006248     1.19612803
