# total energy = -4986.40182567 eV

CRYSTAL
PRIMVEC
        2.71548179     0.00000000     0.00000000
        0.21260500     4.24943772     0.00000000
       -0.00000117    -0.00005522     4.25608405
PRIMCOORD
6 1
Ti      1.46404271     2.12469111     2.12804193     0.00000000     0.00000000     0.00000000
Ti      0.00000000     0.00000000     0.00000000     0.00000000     0.00000000     0.00000000
O       1.39917418     0.82814195     0.82944803    -1.03353243     1.41960737     1.43326945
O       1.52891119     3.42124026     3.42663577     1.03353243    -1.41960737    -1.43326945
O       0.06486795     1.29652677     2.95749082     1.03332263    -1.41895559     1.43261253
O       0.14773578     2.95285564     1.29859298    -1.03332263     1.41895559    -1.43261253
