# total energy = -4941.22813571 eV

CRYSTAL
PRIMVEC
        5.51076165     0.00000000     0.00000000
       -0.00000720     2.36175515     0.00000000
       -2.75541243    -1.18096301     5.98040595
PRIMCOORD
6 1
Ti     -0.00023547     1.77138970     1.49510143    -0.02711923    -0.02116841    49.64023670
Ti      2.75557721    -0.59059751     4.48530441     0.02711923     0.02116841   -49.64023670
O       0.00005855     0.59042432     0.97415925     0.02565062     0.02127023   -43.35911291
O       2.75528303     0.59036782     5.00624664    -0.02565062    -0.02127023    43.35911291
O      -0.00002304    -0.59046706     3.96436223    -0.00145859     0.00017381    -1.24536750
O       2.75536456     1.77125914     2.01604367     0.00145859    -0.00017381     1.24536750
