# total energy = -19518.81647332 eV

CRYSTAL
PRIMVEC
        7.60600008     0.00000000     0.00000000
        0.00000000     7.60600008     0.00000000
       -1.89786986    -1.89786986     4.85670466
PRIMCOORD
23 1
Ti      3.74867698     6.59899700     1.26839098    -0.56870072     0.55172475     0.38554272
Ti      3.79605898     2.76395099     1.20972401    -0.15223739    -0.49419886    -0.05542863
Ti     -0.13982699     6.69622802     1.12843900     0.90510167     0.14677148    -0.24104487
Ti     -0.04451799     2.87662600     1.22943798     0.27951424    -0.27777977    -0.35000517
Ti      5.68736821     2.83996021     3.69059681    -0.24783078     0.42518529    -0.80923059
Ti      5.81428624    -0.89147380     3.59243084    -0.98982341    -0.40770178     0.15914389
Ti      2.07849923     2.84500120     3.69611883    -0.30535332    -0.16158155    -0.05675224
Ti      1.85276121    -0.99244479     3.59687079     1.15842793    -0.03649708     0.61947745
O       3.91896701     4.71241300     0.85326402    -0.12101699    -0.20881119    -0.20888961
O       3.46713399     0.92213703     0.85446801     0.63366429     0.42147158    -0.37789266
O      -0.26159502     4.77591300     0.72747499     0.08111114     0.12184951     1.14741846
O       0.08941799     0.86944701     0.60679602     0.05755031     1.27377434     1.42925981
O       5.84392123     4.75013720     3.99361583     0.29658586    -0.58648710    -0.72923583
O       5.87198720     0.96820624     4.21929082     0.18294023     0.23948241    -2.14613300
O       1.86757023     4.68136622     4.18487080    -0.21198651     0.35422384    -1.19128510
O       2.02895824     0.87368921     4.06471682    -0.38913712     0.91318985    -0.11408709
O       3.87174720     2.99169025     3.14234182    -0.44451896    -0.38730752     0.47092009
O       3.76364624    -1.03190379     3.23492482     0.85183945    -0.08083963     0.03284020
O       0.04339121    -0.88768976     3.09635082    -1.44632268    -0.19859234     0.52233137
O       5.68131501    -0.51281001     1.60074901    -0.23147933    -1.09596115     0.20157842
O       5.74217902     2.64050801     1.59024701     0.20737369    -0.00403329     0.76353410
O       1.84916402     6.59656299     1.65600401     0.33860207    -0.49791539    -0.38825009
O       1.79776498     2.93671799     1.67350400     0.11569686    -0.00996611     0.93618837
