# total energy = -4985.09873804 eV

CRYSTAL
PRIMVEC
        4.28614793     0.00000000     0.00000000
       -0.00000735     3.16802256     0.00000000
       -2.14310020    -1.58405272     4.86607675
PRIMCOORD
6 1
Ti     -0.00018510     2.37613358     1.21651890    -0.00460665    -0.00990646     9.76696402
Ti      2.14322527    -0.79216374     3.64955712     0.00460665     0.00990646    -9.76696402
O       0.00004471     0.79199814     0.79264400     0.00287552     0.00415516    -3.31659010
O       2.14299531     0.79197165     4.07343202    -0.00287552    -0.00415516     3.31659010
O      -0.00001918    -0.79199510     3.22568222    -0.00153212    -0.00027151    -0.48060595
O       2.14305915     2.37596478     1.64039385     0.00153212     0.00027151     0.48060595
