# total energy = -19961.24037668 eV

CRYSTAL
PRIMVEC
        7.60600008     0.00000000     0.00000000
        0.00000000     7.60600008     0.00000000
       -1.89786986    -1.89786986     4.85670466
PRIMCOORD
24 1
Ti      3.82072298     6.57933002     1.24818599     0.98174114     0.30808924    -1.50076144
Ti      3.76853002     2.80649398     1.19607198     1.85026294    -0.45569452     0.23027040
Ti      0.00539798     6.78778601     1.21723103    -1.09545876    -1.96756802    -0.50591924
Ti      0.07027998     2.85397002     1.22783500    -2.13025155     2.38443733     0.15803523
Ti      5.68421823     2.87890924     3.64427682    -0.78621844     1.20644253     0.03565684
Ti      5.69584420    -0.84714176     3.66021384     0.10991290    -0.69066284    -1.00671633
Ti      1.89132024     2.74137925     3.58119683     0.99662860     0.90451880     1.63075827
Ti      1.92386522    -1.02853880     3.55850179    -0.12624095    -0.78514963     2.06718493
O       3.91086499     4.64187600     0.81070399    -0.99942005     0.50481187    -0.06904314
O       3.87546499     0.77225799     0.74522302    -0.48145570     1.50546425    -0.08759058
O      -0.06415502     4.82491698     0.75642702     0.69768067    -0.50050270     0.90317308
O      -0.09681203     1.04939500     0.79646902     0.42658011    -0.34010617     0.00847693
O       5.49200523     4.79919320     4.11941380     0.68196300     1.30382695    -0.10570349
O       5.61612725     1.07304721     4.06694879     0.82204369    -2.21117319     0.38992671
O       2.08530323     4.64265823     4.04411479    -0.60789669     0.31566654    -0.41241821
O       1.86575722     0.88806521     4.04246979    -0.38204962    -0.35501703     0.27274298
O       3.79796921     2.67123421     3.28316483    -1.32099936     0.39522935    -0.88109141
O       3.82888723    -0.84702577     3.14392279     0.04926261    -0.17127436     0.81079408
O      -0.05047975     3.04951821     3.20391583     0.73753870    -0.59017561    -0.27272241
O      -0.00977978    -0.90984577     3.28567181    -0.20105983    -0.11114472    -0.07581903
O       5.75469999     6.69941600     1.61628200    -0.11415008    -0.10962134     0.91264863
O       5.58530903     2.87250202     1.68085502     1.13573819    -0.35023400    -0.52926358
O       1.90576000     6.65600198     1.69051901    -0.37282835    -0.16061816    -1.27209001
O       1.87516102     2.75212700     1.66172801     0.12867630    -0.02954507    -0.70052894
