# total energy = -39035.49294572 eV

CRYSTAL
PRIMVEC
        7.60600008     0.00000000     0.00000000
        0.00000000     7.60600008     0.00000000
       -3.79573973    -3.79573973     9.71340985
PRIMCOORD
46 1
Ti      2.08235344     4.62764547     6.03776462    -0.55209164     1.39244185    -0.09039308
Ti      3.97054698     6.75812398     1.23732701    -1.19306327     1.17335679     1.91197844
Ti      1.80470646     0.71613245     6.09013560     1.09013580     0.56798775     0.10711863
Ti      3.75155100     2.93978500     1.27512598    -0.81089616    -0.64910326     0.48010639
Ti     -1.82866253     4.61540645     6.16817962     0.36028625     0.29998820    -1.71320458
Ti      0.04265999     6.63223801     1.17192800     0.25370344    -0.49553789    -1.36282351
Ti     -1.89745256     0.88002547     6.00463564    -0.73802207    -0.01477665    -0.54673603
Ti      0.01081802     2.87328800     1.19360199    -0.69399474     1.06000375     0.32587742
Ti      3.80202143     0.96322245     8.41434262    -0.69510700     0.66417970    -0.03471505
Ti      5.45689099     2.74899601     3.55382000     0.05398162     0.73133797     2.07594546
Ti      3.75256347    -2.79817055     8.53754662     1.39783372     0.01574750     0.28603842
Ti      5.78999902    -1.06398902     3.57844002    -1.93901025    -0.44391809     2.18666080
Ti     -0.04938753     1.13761647     8.45053364     0.15616578    -0.34168482    -1.21018785
Ti      1.67263599     2.74660900     3.58842200     0.99572409    -0.02034720     1.37279425
Ti      0.07689644    -2.74881255     8.62049960    -0.33751475    -0.12172095    -0.09281069
Ti      1.86250998    -1.04703699     3.57518802     1.25549431     0.06060581     0.13022797
O       1.99513846    -1.03956955     5.72958264    -0.29201495    -0.39548801    -0.79605806
O       3.91140999     1.08406299     0.88320302    -0.72836423    -0.55589868    -1.24355847
O      -1.97347056     2.73916147     5.55879862     0.76468287     2.01947990     1.04160570
O       7.31651700     4.65842099     0.72619301     1.04789462     2.70971311     0.00741609
O      -1.75022756    -0.97460553     5.54998660     0.30190882    -0.28328579     0.65791778
O       0.07392500     1.06407602     0.85169200    -0.41894188    -2.21335966    -0.50295424
O       3.74782744     2.89724846     8.80814263     0.35133238     0.18717432     1.67848979
O       5.40401798     4.71674601     4.14369901     0.92435847    -0.03088179    -0.44938221
O       3.75782243    -0.85696557     8.91570965     0.29089678    -1.09307715    -0.84592231
O       5.71021899     0.95561500     3.98453297     0.61252905    -0.83101865    -0.14150071
O       0.30452145     2.78409147     9.12969464    -0.73047022     1.98120953    -1.45367270
O       2.08984299     4.73147698     3.98796802    -0.66650681    -0.33408953     0.95333070
O       0.03905847    -0.54980257     9.10995564    -0.13941092    -2.08592906    -0.11140363
O       1.66988501     0.83935402     4.04092602    -0.06123881     0.82724169     0.67413064
O       1.86090445     1.11329246     8.09601663     0.59265621    -0.66590928    -1.65205626
O       3.57777802     2.76181898     3.37344702     1.94640398    -0.18986164    -0.82309065
O       2.00474742    -2.87142154     8.10124363    -1.52093664     0.29490564     0.21444602
O       3.97550600    -0.76436902     3.18108802    -2.14472943    -0.61380766     0.16317847
O      -1.96283457     1.23869345     8.05807864     1.09777892    -0.63711317     0.07466306
O      -0.02846000     3.04827898     3.11782901    -2.20579213    -0.19937370     1.09760229
O      -1.92668552    -2.77249154     8.12132861     2.52453833    -0.24625110     0.36800830
O      -0.00738298     6.38186398     3.09749501     1.56945029     0.16131261     0.42032436
O       3.93578644     4.92043644     6.52241764    -1.25815360    -0.97488375    -0.04296006
O       5.75601600     6.54726500     1.61206700     0.65581564     0.19335140    -0.90436633
O       3.87808744     1.02689343     6.38127760    -2.12696362    -0.72098130     0.59891993
O       5.56197998     2.78054900     1.71391499     0.41600439     0.81833565    -1.05031763
O       0.18677147     4.70917544     6.57631064    -1.21160556    -0.61244394    -0.16174096
O       1.94864400     6.74021303     1.59725401    -0.27354671    -0.74244257     0.12121470
O      -0.01895053     0.96263745     6.42378562     0.52245556     0.20394563     0.50876108
O       1.80896999     3.02984800     1.72947699     1.55634409     0.15086699    -2.22690141
