# total energy = -19959.61678656 eV

CRYSTAL
PRIMVEC
        7.60600008     0.00000000     0.00000000
        0.00000000     7.60600008     0.00000000
       -1.89786986    -1.89786986     4.85670466
PRIMCOORD
24 1
Ti      3.90240398     6.68274200     1.21337798    -0.87817938    -0.17882826     0.16071638
Ti      3.79261901     2.92007399     1.19048800    -1.20185491     0.17817366    -0.23513287
Ti      0.04042798     6.36213498     1.33609101     0.97533755     0.15353194     0.04206095
Ti     -0.06403701     2.87331499     1.07948402     1.92269248    -1.46135747    -0.65330316
Ti      5.74225421     2.95192924     3.49772880    -0.27803843    -2.66914906     0.40895416
Ti      5.66510721    -1.07987778     3.78010582    -1.27195812     1.18575671    -0.27354619
Ti      1.81819022     3.00081321     3.51377679     0.56749359    -0.74780615     0.47312224
Ti      1.81944225    -0.86206879     3.70569980     1.54423187     0.65070197    -0.27080385
O       3.45593401     4.80523699     0.73376898     1.47291099     0.20385102    -0.21198933
O       3.92972101     1.02313500     0.89638001    -0.61527730    -0.03275664    -0.44085668
O       0.45636003     4.59475901     0.86529699    -1.14423878     2.67752546    -0.70718964
O      -0.07688998     0.94732697     0.69893001     0.34571143    -1.13932025     1.57064559
O       5.48860024     4.53527425     4.28310483     0.07337443     1.64987237    -0.62349738
O       5.78987122     0.92916021     4.02433483    -0.31782421     0.61989243    -0.93886515
O       2.10362721     4.91117923     4.12577684    -0.75022684    -2.43797800     0.38519845
O       1.92849224     1.10887024     3.91917980    -0.61081438    -0.81941988     0.76938671
O       3.78460822     2.84092723     3.14141783     0.64023655     0.59858723    -0.45783882
O       3.69883124    -1.03507478     3.44449780     2.49039330     0.69659618    -1.59445273
O      -0.07398178     3.19332721     3.11970981     0.99992733    -0.33697456     0.33449190
O      -0.02782880    -1.22784479     3.44894379    -0.34560499     0.17398636    -1.25460496
O       5.75336598     6.54293400     1.60590002    -0.55411587    -0.50736292     0.96576353
O       5.78842101     2.92121098     1.45834302    -2.66878756     0.57791504     1.02331589
O       1.92983302     6.56504001     1.68349402    -1.09098941     1.32209567     0.55253027
O       1.87326598     2.74988101     1.54890499     0.69560065    -0.35753285     0.97589471
