# total energy = -19923.73581463 eV

CRYSTAL
PRIMVEC
        4.88074017     0.00000000     0.00000000
        2.22494760     4.69396464     0.00000000
        0.00000000     0.00000000     8.97683462
PRIMCOORD
24 1
Ti      3.08753540     2.78163907     3.33034160     5.30174627    -4.67639153     1.31802999
Ti      4.01815221     1.91232550     5.64649307    -5.30174627     4.67639153    -1.31802999
Ti      5.11576949     1.91232709     1.15803988   -11.06261871     3.00617427     2.69117571
Ti      1.98991821     2.78163766     7.81879493    11.06261871    -3.00617427    -2.69117571
Ti      1.97506172     0.43465683     1.15807586     5.30174395    -4.67518774    -1.31784050
Ti      5.13062593     4.25930789     7.81875895    -5.30174395     4.67518774     1.31784050
Ti      0.87744440     0.43465510     5.64645709    11.06335019    -3.00545179     2.69123793
Ti      6.22824329     4.25930961     3.33037762   -11.06335019     3.00545179    -2.69123793
O       2.32822691     1.65282472     4.58081000    -1.83880481    -0.16509265    -1.40093730
O       4.77746071     3.04113985     4.39602472     1.83880481     0.16509265     1.40093730
O       1.67906437     1.65284368     0.09242156     2.36640797     0.08638061    -2.48820966
O       5.42662331     3.04112097     8.88441291    -2.36640797    -0.08638061     2.48820966
O       3.66498700     0.69415751     0.09239240     1.83860015     0.16517878    -1.40085142
O       3.44070062     3.99980711     8.88444203    -1.83860015    -0.16517878     1.40085142
O       4.31414959     0.69413859     4.58083911    -2.36613107    -0.08679688    -2.48819501
O       2.79153799     3.99982605     4.39599556     2.36613107     0.08679688     2.48819501
O       1.53066780     2.85513541     2.42486699     0.07343742    -4.35408846    -3.83045251
O       5.57501976     1.83882918     6.55196773    -0.07343742     4.35408846     3.83045251
O       3.48929588     1.83878549     2.06357890     2.72843769    -3.51846059    -4.86860676
O       3.61639174     2.85517908     6.91325562    -2.72843769     3.51846059     4.86860676
O       0.41819408     0.50815302     2.06355022     0.07332686    -4.35430263     3.83039389
O       6.68749348     4.18581156     6.91328430    -0.07332686     4.35430263    -3.83039389
O       2.50391802     0.50819669     6.55199630    -2.72844309     3.51859146    -4.86836327
O       4.60176959     4.18576788     2.42483831     2.72844309    -3.51859146     4.86836327
