# total energy = -19073.90447692 eV

CRYSTAL
PRIMVEC
        7.60600008     0.00000000     0.00000000
        0.00000000     7.60600008     0.00000000
       -1.89786986    -1.89786986     4.85670466
PRIMCOORD
22 1
Ti      3.58623401     6.62521000     1.41109897     1.38473960    -0.00528439    -1.60617748
Ti      3.90979600     2.92188103     1.25778701     1.51565945     0.14022853    -0.68639250
Ti     -0.00518800     6.50737699     0.92763798    -1.45305229    -0.24274025     3.83279273
Ti      0.26307999     2.70632401     1.01220998    -1.19989572     0.86999993     0.87986628
Ti      5.91178525     2.87344220     3.51688279    -0.19686970    -0.40433595    -0.73625340
Ti      5.79242223    -0.93629675     3.59559579     0.81393623     0.07396578    -1.45643047
Ti      1.96464923     2.97600723     3.65745280    -0.13448109    -1.26077227     0.22572983
Ti      1.21081523    -0.95073080     3.98441783     1.49021992     0.47727611    -1.86505630
O       3.45130598     4.85885201     0.98917399     0.67698431    -1.86186864    -0.25022499
O       4.08153201     0.93450099     0.72136601    -1.44482887     0.40590509     1.24588738
O       0.16204699     4.65175098     0.70169798     0.01616119     0.72511847    -0.57685472
O       7.23587902     0.98431699     0.60239601     0.71590234    -0.45418040     0.41447998
O      -1.44416075     4.77170424     4.09840382    -0.22186212     1.04395697    -2.13047729
O       6.04215325     0.97293921     3.85627782     0.03260494    -0.51524567     0.04248570
O       1.77942322     4.68081821     4.24501979    -0.56634019     2.24879127    -0.12060509
O       1.75257123     1.06483121     4.13992582    -0.48961793    -0.66378529     0.27595275
O       3.92915124     3.04561923     3.40026181     0.06487513    -0.15380216    -1.09376492
O       0.05232325     3.22831424     3.02749883     1.07336398    -1.58989777    -0.64072660
O       5.55366798     6.50218502     1.52418198     1.28751330    -0.10321877     1.98492349
O       5.81702500     2.96743297     1.33645302    -1.11224190     0.02037471     1.62822881
O       1.77549397     6.50628202     2.07354999    -1.18936165     1.19111566     0.69151722
O       2.06556201     2.52062100     1.71445301    -1.06340943     0.05839929    -0.05890065
