# total energy = -19960.81628544 eV

CRYSTAL
PRIMVEC
        7.60600008     0.00000000     0.00000000
        0.00000000     7.60600008     0.00000000
       -1.89786986    -1.89786986     4.85670466
PRIMCOORD
24 1
Ti      3.89819400     6.47013398     1.24571500    -1.32014858     2.19757411    -0.74897780
Ti      3.78023399     2.78689902     1.25462602    -0.20603749    -2.19715656    -1.43051168
Ti      0.00144799     6.73569502     1.14184100     1.22901219    -0.13548253     1.97517720
Ti     -0.01864498     2.95962401     1.20185298     0.19593356    -0.09129862     0.11151547
Ti      5.62412021     2.88917422     3.55743079     0.92661384    -0.51046573     0.73320407
Ti      5.70480624    -0.88954077     3.66534479     0.42839814     0.33774229    -0.22183486
Ti      1.88104621     2.76614623     3.58129880    -0.96337317     0.10290330     0.63284385
Ti      1.95770023    -0.98542578     3.61714183    -0.68145443    -0.15221296     0.70979803
O       3.80266100     4.56553102     0.89502902     0.43160276     2.15143873    -0.84045460
O       3.81853399     0.80835900     0.84410402     0.24643210     1.89159549     0.10579682
O      -0.02102501     4.80607600     0.79796199    -0.03146646    -0.34443771    -0.64001852
O      -0.12847598     1.00809197     0.84115100     0.80995436    -0.32235655    -0.57463149
O       5.57386721     4.83319220     4.10936282     0.27160604    -0.62974105    -1.06327574
O       5.61290821     1.00854320     4.07534582     0.53327090     0.53016938    -0.24384223
O       1.88999221     4.81287820     4.11978682     0.61899717    -2.85126216     0.08139704
O       1.84761221     0.92264922     4.01363883     0.20357565     1.02381392     0.69284494
O       3.75385625     2.92369420     3.23569282     0.98034914    -0.14211367    -0.21644531
O       3.79698023    -0.70543577     3.21838380     2.00180767    -0.97984006    -0.13853212
O       0.05965923     2.93704820     3.24335081    -1.88155533     0.12144327    -0.24366534
O       0.13400922    -0.92635378     3.27795582    -2.64103300     0.19627629    -0.51148183
O       5.78528701     6.52295603     1.68924703    -0.44181185     0.06797691     0.34768321
O       5.70127002     2.65101303     1.56675398    -0.27154408     1.04313833     1.55552005
O       1.98619399     6.66001600     1.64279997    -0.87374577    -0.59825376    -0.61405448
O       1.85232702     2.92520198     1.58150098     0.43461661    -0.70945093     0.54194530
