# total energy = -19519.01001588 eV

CRYSTAL
PRIMVEC
        7.60600008     0.00000000     0.00000000
        0.00000000     7.60600008     0.00000000
       -1.89786986    -1.89786986     4.85670466
PRIMCOORD
23 1
Ti      3.79826899     6.66277698     1.15629097     0.86183359    -0.60487821     0.21887167
Ti      3.84597902     2.79772800     1.17362402    -0.47224318     0.77148062     1.18372219
Ti      0.08482198     6.71028699     1.23201502    -0.82227021    -0.42042000    -0.74765008
Ti     -0.02418398     2.83745000     1.12187202    -0.02573752     0.19775750     1.78188005
Ti      5.57210521     2.84774324     3.73163980    -0.38311303     0.25549422     0.56768308
Ti      5.72517920    -0.97773577     3.53388579    -0.67551904    -0.11088915     0.47082521
Ti      1.94354125     2.85257320     3.66602981     0.76573651     0.40447787     0.48456185
Ti      1.92281422    -0.91195179     3.60738581     0.46054337    -0.84450229     0.28807139
O       3.91012801     4.70213802     0.81504499    -0.45275755    -0.22837935     0.12999400
O       3.71046499     0.92321401     0.76980002     0.16674407     0.57065090    -0.24398081
O      -0.21423201     4.76814299     0.88555998     0.84393947     0.01585728     0.09244713
O       0.05028200     0.97045001     0.74495298     0.00103487    -1.37830438     0.37468957
O       5.71330822     4.72445824     4.03677282     0.62920137     0.83954494    -0.05039595
O       5.67026124     0.94870622     4.17793080     0.45805891     0.28460271    -2.27928740
O       1.84984920     4.74840224     4.10033082    -0.28803359     0.02897609    -1.25286870
O       1.88277720     0.93868921     4.12275381    -0.25076441     0.18626287    -0.73714121
O       3.79259621     2.88983522     3.40986082    -0.88237516    -0.15576571    -1.21609162
O       3.81936522    -0.81280075     3.18151179    -0.53903223    -0.32920443     0.62260880
O       0.01494725    -0.81409279     3.19552779     0.25616502    -0.15893203    -0.41616637
O       5.64782999     6.68526898     1.56979399     1.44281955     0.20849546     0.56916558
O       5.66426899     2.67952002     1.81261999     1.14975791    -0.01626249    -0.90347159
O       1.97777298     6.48400398     1.54045403    -1.88633810     0.28906101     0.88893277
O       1.86089498     2.81103400     1.70196802    -0.35765112     0.19487684     0.17360044
