# total energy = -19516.20338473 eV

CRYSTAL
PRIMVEC
        5.17600016     0.00000000     0.00000000
        0.00000000     5.50899976     0.00000000
        0.00000000     0.00000000     9.26300011
PRIMCOORD
23 1
Ti      2.00581700     3.17172100     3.37903101    -0.84469075     0.40413412     2.84060519
Ti      3.22769901     2.26509898     6.00083800     0.76282602     0.55009415    -3.00925291
Ti      4.43516699     2.11836702     1.53983801    -0.10348617    -0.38356040    -3.28368022
Ti      0.85482002     3.42649598     7.70098502    -1.68594599    -0.01050990     2.46612156
Ti      1.97615598     0.23460999     1.45828899     2.05167244    -0.58996041    -2.74706945
Ti      3.18542701     5.22964497     7.79773502     1.01957365    -1.33505070     4.67257575
Ti      0.72273002     0.59392299     5.89396499    -1.48873150    -1.43077393    -3.49369392
Ti      4.55532398     4.85562001     3.40509198     0.10647251     0.93784674     3.27638009
O       1.61497700     1.92346500     4.88581899     1.16020430     0.06333761    -1.19199678
O       3.55624099     3.42589701     4.42489999     0.12772114     0.30591897     0.29538310
O       4.88764603     2.92107699     9.16116301     0.69033246    -0.48135748     0.39207924
O       3.39895702     0.79344302     0.18360101    -0.31294168     0.30359623     0.74496405
O       1.91495800     4.45919798     9.06252998    -0.70972090     0.00082301    -0.03617929
O       4.24998199     0.68190500     4.84475002    -0.60640056    -0.53919627    -0.46950752
O       1.02818801     4.72621500     4.35145898     0.22979346     0.00750660     0.63211803
O       0.15731799     3.29603199     2.59340499     1.50139985    -0.20109042    -0.51699556
O       5.09405801     2.14527102     6.51833901    -1.14473166     1.33862993     2.11426262
O       2.81349701     1.77875799     2.39435798    -1.02401061    -0.63769373    -0.43217046
O       2.48366300     3.89578799     6.70699599    -0.28826499    -1.49454580    -0.42521434
O       0.28580302     0.65042800     2.19397999    -0.18092885     0.16680758    -1.05561822
O       4.89672702     4.82019101     7.22442302     1.64484097     0.58087490    -0.69420351
O       2.21874702     0.94851900     7.05105000    -0.78223220     2.54837787    -0.23418850
O       2.97725498     4.44893099     2.24099099    -0.12275145    -0.10420865     0.15528080
