# total energy = -4986.67136924 eV

CRYSTAL
PRIMVEC
        4.15051427     0.00000000     0.00000000
        1.40950550     3.90385233     0.00000000
       -2.78004775    -1.95195275     5.38252727
PRIMCOORD
6 1
Ti      1.05700946     2.92803898     1.34563187    -0.00001388     0.00001388     0.00000000
Ti      1.72296184    -0.97613991     4.03689551     0.00001388    -0.00001388     0.00000000
O       0.35241961     0.97595771     0.87676977    -0.00070345    -0.00107164    -1.53848982
O       2.42755149     0.97594123     4.50575773     0.00070345     0.00107164     1.53848982
O      -0.35238595    -0.97593412     3.56803340    -0.00107164    -0.00070345    -1.53848982
O       3.13235699     2.92783301     1.81449410     0.00107164     0.00070345     1.53848982
