# total energy = -19959.60483055 eV

CRYSTAL
PRIMVEC
        5.29409678     0.00000000     0.00000000
        0.84047907     5.57148176     0.00000000
        0.00000000     0.00000000     9.50217789
PRIMCOORD
24 1
Ti      2.41692255     3.30165487     3.52524026     0.59365637    -1.11647985     0.67886970
Ti      3.71765323     2.26982672     5.97693785    -0.59365637     1.11647985    -0.67886970
Ti      4.90822871     2.26982861     1.22581080    -0.93240602    -0.39315087     0.39462592
Ti      1.22634708     3.30165321     8.27636742     0.93240602     0.39315087    -0.39462592
Ti      1.99668313     0.51591410     1.22584891     0.59396850    -1.11627930    -0.67758775
Ti      4.13789266     5.05556766     8.27632931    -0.59396850     1.11627930     0.67758775
Ti      0.80610764     0.51591205     5.97689975     0.93188255     0.39322209     0.39059082
Ti      5.32846815     5.05556971     3.52527836    -0.93188255    -0.39322209    -0.39059082
O       1.97156200     1.96181337     4.84888869     0.55801830     0.81098692    -0.43717126
O       4.16301378     3.60966823     4.65328936    -0.55801830    -0.81098692     0.43717126
O       1.26741464     1.96183589     0.09783024    -0.06622110    -0.17804587     0.41336284
O       4.86716120     3.60964575     9.40434760     0.06622110     0.17804587    -0.41336284
O       3.74277435     0.82392729     0.09779942    -0.55774010    -0.81083214    -0.43750370
O       2.39180143     4.74755431     9.40437842     0.55774010     0.81083214     0.43750370
O       4.44692177     0.82390481     4.84891957     0.06565032     0.17840274     0.41377473
O       1.68765396     4.74757684     4.65325854    -0.06565032    -0.17840274    -0.41377473
O       0.70357378     3.38889103     2.56677535    -0.05932206     0.22533465     0.14721705
O       5.43100199     2.18259052     6.93540276     0.05932206    -0.22533465    -0.14721705
O       3.16864984     2.18253870     2.18434393     0.61013406     0.18266769    -0.23837143
O       2.96592593     3.38894284     7.31783402    -0.61013406    -0.18266769     0.23837143
O       0.28333435     0.60315009     2.18431354    -0.05930149     0.22562493    -0.14800072
O       5.85124142     4.96833146     7.31786435     0.05930149    -0.22562493     0.14800072
O       2.54568650     0.60320190     6.93543304    -0.61012815    -0.18269263    -0.23768443
O       3.58888927     4.96827964     2.56674502     0.61012815     0.18269263     0.23768443
