# total energy = -4987.20702353 eV

CRYSTAL
PRIMVEC
        3.54089075     0.00000000     0.00000000
        0.00000000     4.53930956     0.00000000
        0.00000000    -0.00006666     5.09462361
PRIMCOORD
6 1
Ti      1.77044538     2.26962139     2.54731192     0.00000000     0.00000000     0.00000000
Ti      0.00000000     0.00000000     0.00000000     0.00000000     0.00000000     0.00000000
O       1.77044538     0.88463157     0.99286717    -0.00000000     0.17828756     0.14113870
O       1.77044538     3.65461122     4.10175667    -0.00000000    -0.17828756    -0.14113870
O       0.00000000     1.38496285     3.54018000     0.00000000    -0.17803379     0.14092324
O       0.00000000     3.15427994     1.55444384     0.00000000     0.17803379    -0.14092324
