# total energy = -19951.40262446 eV

CRYSTAL
PRIMVEC
        6.14879375     0.00000000     0.00000000
        0.00002859     5.35432599     0.00000000
        0.00000000     0.00000000    10.10559141
PRIMCOORD
24 1
Ti      2.22865892     3.17296852     3.74910246     0.19123487    -0.21297150     0.10783211
Ti      3.92016347     2.18135725     6.35648934    -0.19123487     0.21297150    -0.10783211
Ti      5.30294926     2.18135898     1.30365306     0.19231782     0.21253287    -0.10771589
Ti      0.84587313     3.17296696     8.80193886    -0.19231782    -0.21253287     0.10771589
Ti      2.22864486     0.49580563     1.30369358     0.19168610    -0.24522523    -0.10732508
Ti      3.92017754     4.85852030     8.80189834    -0.19168610     0.24522523     0.10732508
Ti      0.84585907     0.49580367     6.35644882    -0.19280915    -0.24500411    -0.10686383
Ti      5.30296333     4.85852220     3.74914298     0.19280915     0.24500411     0.10686383
O       1.94614213     1.88534912     5.15680610     0.86754118     0.72246714    -0.23538818
O       4.20268027     3.46897664     4.94878571    -0.86754118    -0.72246714     0.23538818
O       1.12831081     1.88537076     0.10404274    -0.86734629     0.72283018    -0.23609292
O       5.02051164     3.46895506    10.00154878     0.86734629    -0.72283018     0.23609292
O       4.20266620     0.79181359     0.10400994    -0.86806903    -0.72340123    -0.23492718
O       1.94615619     4.56251218    10.00158159     0.86806903     0.72340123     0.23492718
O       5.02049751     0.79179201     5.15683890     0.86792942    -0.72407794    -0.23572397
O       1.12832477     4.56253381     4.94875291    -0.86792942     0.72407794     0.23572397
O       0.22341718     3.25680461     2.72977245    -0.40035716    -0.04492439     0.17680403
O       5.92540521     2.09752115     7.37581936     0.40035716     0.04492439    -0.17680403
O       3.29782021     2.09747139     2.32305560    -0.40039547     0.04494239    -0.17718430
O       2.85100219     3.25685438     7.78253604     0.40039547    -0.04494239     0.17718430
O       0.22340306     0.57964156     2.32302331    -0.40059422    -0.04517893    -0.17667676
O       5.92541934     4.77468420     7.78256833     0.40059422     0.04517893     0.17667676
O       2.85098807     0.57969132     7.37585159     0.40055462    -0.04534502    -0.17700355
O       3.29783433     4.77463444     2.72974016    -0.40055462     0.04534502     0.17700355
