# total energy = -4989.98526041 eV

CRYSTAL
PRIMVEC
        3.74567340     0.00000000     0.00000000
        0.74170972     3.67150322     0.00000000
       -2.24372568    -1.83577953     4.80463584
PRIMCOORD
6 1
Ti      0.55615317     2.75376782     1.20115909     0.00132283    -0.00132283     0.00000000
Ti      1.68750427    -0.91804413     3.60347691    -0.00132283     0.00132283     0.00000000
O       0.18546668     0.91787044     0.78263598    -0.00016224     0.00000386    -0.15565824
O       2.05819065     0.91785316     4.02200007     0.00016224    -0.00000386     0.15565824
O      -0.18544209    -0.91785032     3.18495379     0.00000386    -0.00016224    -0.15565824
O       2.42909930     2.75357383     1.61968221    -0.00000386     0.00016224     0.15565824
