# total energy = -19514.35733572 eV

CRYSTAL
PRIMVEC
        5.93400000     0.00000000     0.00000000
        0.00000000     9.29699974     0.00000000
        0.00000000     0.00000000     4.64899994
PRIMCOORD
23 1
Ti      4.53752098     6.78362699     2.27172401     0.60228371     1.14587503     0.50011215
Ti      4.43463998     2.28747101     2.35944001     0.41922007    -0.30193453     0.90875572
Ti      1.48135202     7.10029999     2.37763900     1.75882728    -0.57603736    -0.34887415
Ti      1.38157300     2.48855497     2.29312003     0.60091871    -1.08314471     0.12509938
Ti      2.94585000     4.62918300     0.11707697    -0.46882078     0.48238078    -0.83650795
Ti      3.03963598     0.02343102     4.55703799    -1.09386236    -1.64389069    -0.41824151
Ti      0.04515099     4.67060900     0.02816202    -0.45742025    -0.02870535    -0.30655197
Ti      0.02319199     9.25017401     0.20439598     1.01981328     0.96303996    -1.82495762
O       4.29827799     5.73798402     0.72848599     0.87226250    -0.96651120    -0.77780605
O       4.37239302     0.91544801     0.69860599     0.64883175     0.12006851     1.69717683
O       1.54206902     5.63181000     1.00216403     0.08575661    -1.53390529    -1.10457332
O       1.45083902     1.01636598     1.09414800    -0.25678825    -1.03322467    -1.32255102
O       4.47300702     8.18988400     3.35757202    -1.39943449     1.48965967     2.97774274
O       4.57588199     3.70970202     3.55793599    -0.84264286     1.58611233     1.08260581
O       1.43822698     8.34844302     3.68644002     0.46799468     1.28577060     1.44470572
O       1.36941600     3.60098499     3.99536200     0.51502249     0.45922799    -2.17147380
O       2.91721802     1.71147199     3.29876800    -0.90786972    -1.67296808    -0.19622744
O       0.12058902     5.98116001     3.28355097    -0.32890438     0.52981791    -1.09782752
O       5.71416998     1.09690998     3.26971400     0.71985516     2.35819021    -1.38058264
O       2.97119198     7.82561700     1.25408198    -0.09342287     0.57251315     0.42405529
O       3.07993098     3.31409202     1.18059201    -0.69979695    -2.17980469     2.84705789
O       0.17608500     7.76679498     1.41681499    -2.30776340     0.95147616    -1.58553897
O       5.73276300     3.32892999     1.32893098     1.14594008    -0.92400597     1.36440319
