# total energy = -4965.96214808 eV

CRYSTAL
PRIMVEC
        5.62200396     0.00000000     0.00000000
       -0.00000777     2.70689062     0.00000000
       -2.81103348    -1.35352094     6.05670782
PRIMCOORD
6 1
Ti     -0.00024018     2.03025772     1.51417664    -0.01293857    -0.01445758    23.48550294
Ti      2.81120283    -0.67688821     4.54253043     0.01293857     0.01445758   -23.48550294
O       0.00005982     0.67670967     0.98658807     0.01050965     0.01394438   -17.84619333
O       2.81090266     0.67665972     5.07011906    -0.01050965    -0.01394438    17.84619333
O      -0.00002297    -0.67674045     4.01494186    -0.00173550    -0.00021854    -1.93081434
O       2.81098539     2.03010985     2.04176526     0.00173550     0.00021854     1.93081434
