# total energy = -19517.51022509 eV

CRYSTAL
PRIMVEC
        5.93400000     0.00000000     0.00000000
        0.00000000     9.29699974     0.00000000
        0.00000000     0.00000000     4.64899994
PRIMCOORD
23 1
Ti      4.50270699     7.02146999     2.38581997     0.13197143     1.51570419    -0.42225629
Ti      4.42904202     2.39649501     2.27926998    -0.62012152    -1.73539680    -0.17513050
Ti      1.43503102     6.97380901     2.23421302    -0.02649780     0.80639570    -0.74481158
Ti      1.44374403     2.27342902     2.38092201     0.60420535     0.28326651     0.59664888
Ti      3.06066199     4.55677800     0.08869000    -2.80664862    -0.22262959     0.77677452
Ti      2.98414201     0.07881301     0.08053501     0.61132680    -0.23821100    -0.07583677
Ti      5.90389802     4.57776401     4.55055102     1.81612793     0.40390092     0.37485438
Ti      0.06270697     0.09827700     4.51821903    -0.75918740    -0.97702985     1.11516190
O       4.41450902     5.47231899     0.86632200     0.52858481     1.29175562     0.83096182
O       4.55509702     0.94680399     0.90851902    -0.34144983    -0.20743179    -0.05350853
O       1.40059999     5.47053498     0.86766902     0.63251809     0.99121206     0.76273886
O       1.39821801     1.10794000     0.97100702     0.30510290    -2.14152532    -1.59518627
O       4.42492301     8.42784701     3.77982599     0.44475782    -1.05009137    -0.35363840
O       4.35358399     3.78583401     3.65120698     0.48867330    -0.19063323     0.06081895
O       1.70212699     8.31464198     3.79271702    -1.62568034    -0.08961635    -0.08523159
O       1.53016301     3.68861700     3.78286998    -0.89421304     0.00333858    -0.63450067
O       2.93595598     1.32901501     3.36203600    -0.17310473     1.39735446    -1.27677739
O       5.89933799     6.07154301     3.25005702     0.11177001    -0.41010962     0.04419368
O       5.87636699     1.28984700     3.15546801     0.25236235     0.87886689     0.20620949
O       2.95459900     7.84846100     1.43159898    -0.05442616    -0.90485947     1.05810730
O       2.93179902     3.15767500     1.40350798     0.20804089     0.30570017     0.14288397
O       5.89713201     7.92368201     1.45710898     0.31350707    -0.63216868     0.15352320
O       5.82858498     3.21970902     1.48862402     0.85238041     0.92220799    -0.70599896
