# total energy = -4976.61473168 eV

CRYSTAL
PRIMVEC
        3.25169172     0.00000000     0.00000000
       -0.00000724     3.25169172     0.00000000
       -1.62587136    -1.62587498     4.14988182
PRIMCOORD
6 1
Ti     -0.00014320     2.43889195     1.03747034     0.00564100    -0.00577804     0.00200469
Ti      1.62595622    -0.81307530     3.11241121    -0.00564100     0.00577804    -0.00200469
O       0.00003248     0.81291741     0.67598179     0.00149690     0.00605264     4.59442884
O       1.62578046     0.81289915     3.47389980    -0.00149690    -0.00605264    -4.59442884
O      -0.00001837    -0.81290329     2.75092266     0.00610354     0.00145859     4.59681637
O       1.62583126     2.43871980     1.39895894    -0.00610354    -0.00145859    -4.59681637
