# total energy = -19075.19043824 eV

CRYSTAL
PRIMVEC
        7.60600008     0.00000000     0.00000000
        0.00000000     7.60600008     0.00000000
       -1.89786986    -1.89786986     4.85670466
PRIMCOORD
22 1
Ti      3.95363902     6.48408399     1.26808501    -0.33585202     1.28175582    -0.35560658
Ti      3.75875400     2.79022702     1.12489102     0.87144771    -0.64800771     0.39864301
Ti      0.26686700     6.81665099     1.07988000    -0.49962955    -0.18420393     0.01274162
Ti      0.05581000     2.96709599     1.15245402    -1.06251803    -0.34652647    -1.13349182
Ti      5.59110420     3.02735621     3.53368782    -0.51639006    -0.60174069    -0.20204430
Ti      6.02629725    -0.87532077     3.57847479    -0.35303625     0.24319765     0.69202090
Ti      1.82192325     2.78750123     3.68051980     0.45089401    -1.19749174    -1.82414823
Ti      1.37985122    -1.23440680     3.96990181     1.27892247     1.50648806    -1.83055234
O       3.65655997     4.75911602     0.68085898    -0.27198039    -1.43938610     1.82851937
O       4.04329001     0.90724100     0.83155299    -1.13287861    -0.77048817     0.54527179
O       0.10204098     4.93696302     0.78208900     0.66195389    -0.10711528    -0.66097379
O      -0.19868299     1.10400302     0.62986402     0.93140689    -0.66936150     0.99379987
O       5.22510125     4.89781824     3.92493682     1.44948334     0.24157786    -0.31571539
O       5.73901020     1.04317722     3.91360481     0.68867641    -0.33607030     0.35592257
O       2.12055024     4.63993323     4.12627882    -0.78333829     0.98431456     0.07339551
O       1.70885124     0.82758025     4.07680783    -0.60431900     0.16827979     0.36150212
O       3.77361822     2.62417321     3.33023679    -0.52731931     0.51702307    -0.82318603
O      -0.06597179     2.85862122     3.04955483     0.22042307     0.69781514     1.25136743
O       5.77888699     6.65069301     1.65850601    -0.09153902    -0.21399582     0.87492359
O       5.63104402     3.04681898     1.47869100    -0.37433245     0.23593197     0.94964502
O       2.20740199     6.54867499     2.20355699    -0.69040290     0.32309600    -0.59690805
O       1.87210401     2.72575100     1.66989300     0.69032757     0.31490806    -0.59512601
