# total energy = -19072.89789009 eV

CRYSTAL
PRIMVEC
        5.93400000     0.00000000     0.00000000
        0.00000000     9.29699974     0.00000000
        0.00000000     0.00000000     4.64899994
PRIMCOORD
22 1
Ti      4.41895299     7.07293899     2.38773602    -0.82951429    -0.21800160    -0.06459591
Ti      4.51137899     2.39042498     2.18033098     1.51584508    -2.23437021    -0.04313721
Ti      1.42634399     7.20880001     2.63729998     1.21284689    -1.24547446    -0.66961656
Ti      1.63647101     2.37159902     2.21738301    -1.51784077    -0.03521590     1.32037201
Ti      3.02221002     4.43494902     4.47685398     0.32609365     1.22801306    -0.72600241
Ti      2.93319701     9.29404900     0.05408599     0.93153982    -0.90219735    -1.25777976
Ti      5.78663202     4.57590803     4.47350699    -0.83967504     0.18803204    -0.23270086
Ti      0.03672300     9.28286098     0.31003902    -3.12394678    -0.91452759     0.57094478
O       4.43881799     5.52954703     0.74224899    -0.30596525    -0.74581277     0.76888174
O       4.18877301     0.58073700     1.14242298     2.53939572     1.81053552     0.93730783
O       1.52608501     0.69646701     1.13039600     0.45913055     1.99941706     0.63477989
O       4.73729899     8.33307200     3.77404098    -1.88040836     1.26708587    -0.52199070
O       4.43862701     3.78159699     3.35082401     0.21492219     1.04319361     1.51774153
O       1.32432999     8.40603099     3.94061502     1.12553142     0.84097113    -0.96702131
O       1.39447402     4.08275700     3.46791400     1.83875339    -1.32098007    -0.12772782
O       3.02588102     6.22128901     3.35284801    -1.03154368    -0.98499976     0.18403423
O       2.99598701     1.60378098     3.34489997    -0.54434054    -1.00178624     0.86786848
O       0.01230898     6.19624802     3.27372399    -0.14553735    -1.54491553     0.15840907
O       2.77269802     7.70073800     1.36968498     0.87394194     0.28391032    -0.09377794
O       3.06881799     3.02478002     1.32925002    -0.92503595     2.41837487    -3.35303550
O       0.03829100     7.73143901     1.40312602     0.16862021     0.69633676    -0.21628385
O       0.03843002     3.07839700     0.98585701    -0.06281233    -0.62758852     1.31332975
