# total energy = -4986.04563530 eV

CRYSTAL
PRIMVEC
        3.48600501     0.00000000     0.00000000
        0.00000000     3.27722810     0.00000000
        0.00000000    -0.00006454     4.66094658
PRIMCOORD
6 1
Ti      1.74300236     1.63858188     2.33047339     0.00000000     0.00000000     0.00000000
Ti      0.00000000     0.00000000     0.00000000     0.00000000     0.00000000     0.00000000
O       1.74300236     0.63867095     0.90834989     0.00000000    -1.85231519    -1.60396788
O       1.74300236     2.63849281     3.75259693     0.00000000     1.85231519     1.60396788
O       0.00000000     0.99988516     3.23882418     0.00000000     1.85064552    -1.60380307
O       0.00000000     2.27727860     1.42212259     0.00000000    -1.85064552     1.60380307
