# total energy = -19520.01160301 eV

CRYSTAL
PRIMVEC
        5.17575250     0.00001323     0.00000000
        0.00001429     5.50856584     0.00000000
        0.00000000     0.00000000     9.26345890
PRIMCOORD
23 1
Ti      1.84307002     3.36328250     3.40994270    -0.01125064    -0.00202397    -0.00178769
Ti      3.36925078     2.16868982     5.77133001     0.00092046    -0.01294088    -0.01253156
Ti      4.58034465     1.94563106     1.42572619    -0.00002957     0.00898112    -0.01125295
Ti      0.84523148     3.31671069     7.93694291     0.00521137     0.01492500     0.00088086
Ti      2.03176727     0.48176293     1.25709170     0.00455497     0.00040006    -0.00674761
Ti      3.16144341     5.16977828     7.91203915    -0.01366593    -0.00572919     0.00778787
Ti      0.61156707     0.69948137     5.66643900    -0.01210502    -0.02371586     0.02616664
Ti      4.57682841     4.82926962     3.57382253    -0.01897012    -0.00033784    -0.00172213
O       1.52853912     1.95264786     4.66815497     0.00834478    -0.01972345    -0.01004222
O       3.57755302     3.51448614     4.50207651     0.00347202     0.00003034     0.00683708
O       0.73182006     2.12288851     0.09103839    -0.02864544     0.03215654     0.00276985
O       3.54720753     0.84543161     0.09416103     0.00622644     0.00140768    -0.02026133
O       1.68533228     4.71584662     9.13573441     0.00120019     0.00322545     0.02241746
O       4.06015776     0.76661066     4.70360700    -0.03155465    -0.01296736    -0.00360829
O       1.04204417     4.63552811     4.62106452    -0.00341237     0.01627355    -0.00146424
O       0.17835056     3.37381974     2.38541911     0.02235575    -0.01060735     0.03735120
O       4.93752821     2.15306887     6.83394233     0.00053608     0.00980156     0.00210368
O       2.78572853     2.12374675     2.09611998    -0.00147299    -0.00499463     0.00479948
O       2.48725556     3.41641368     7.14090885     0.01931208    -0.00017766     0.00257059
O       0.27713381     0.55827833     2.21133371     0.02441366    -0.00779405    -0.01595550
O       4.89816040     4.78557539     7.33175027     0.01615656     0.00359389    -0.01379834
O       2.31470377     0.74486311     6.76880041     0.00490901    -0.00347253    -0.01495380
O       2.81217000     4.85024352     2.45597727     0.00349362     0.01368907     0.00044094
