# total energy = -4949.88752673 eV

CRYSTAL
PRIMVEC
        5.13425019     0.00000000     0.00000000
       -0.00000709     2.47204623     0.00000000
       -2.56715386    -1.23609218     5.53124002
PRIMCOORD
6 1
Ti     -0.00021934     1.85411664     1.38280971    -0.02204105    -0.02164278    40.36272323
Ti      2.56730852    -0.61816275     4.14842962     0.02204105     0.02164278   -40.36272323
O       0.00005463     0.61799970     0.90099367     0.02062977     0.02088328   -32.40126463
O       2.56703439     0.61795408     4.63024572    -0.02062977    -0.02088328    32.40126463
O      -0.00002097    -0.61802781     3.66661358    -0.00150204     0.00042680    -1.33378417
O       2.56710994     1.85398160     1.86462581     0.00150204    -0.00042680     1.33378417
