# total energy = -19074.14650215 eV

CRYSTAL
PRIMVEC
        5.17600016     0.00000000     0.00000000
        0.00000000     5.50899976     0.00000000
        0.00000000     0.00000000     9.26300011
PRIMCOORD
22 1
Ti      1.90250699     3.52714100     3.34813002     1.31058021    -0.52341303    -0.91725528
Ti      3.47849601     2.14715299     5.94999798     0.30693198     0.77201900    -1.19469952
Ti      4.49254901     2.22498300     1.25996198    -1.15646746     0.60971600    -0.81088844
Ti      0.61196798     3.16935198     8.10859501     0.88181543     1.34043690     0.18093348
Ti      1.85038102     0.58152801     1.34595498     0.60386314     0.06405057    -1.71126236
Ti      3.16787600     5.02103700     8.05428201     0.07945972     0.28164697     1.62739886
Ti      0.66275302     0.15420400     5.93096501    -0.79036846     0.99764213     0.11760307
Ti      4.50850201     4.97702099     3.36721300    -0.44648354    -0.75796612     0.41347159
O       3.59773102     3.35417402     4.26710399     0.05189208    -0.25140385     2.00172822
O       0.88061598     1.93138001     0.13480600     0.11942239    -0.63219645     0.00146399
O       4.21771800     3.63867198     9.06872300     0.33354034     0.00914876    -0.51168443
O       3.42588198     0.82548201     0.27309801     0.72226608     0.24477143    -1.69410256
O       1.71570298     4.67582098     9.18217400    -1.19130695     0.14546433     0.03080697
O       4.29654699     0.80191298     4.74020301    -0.17837986    -0.33408541     0.71033770
O       1.16881898     5.02574801     4.23931002    -0.55903054    -0.88640511     1.40653588
O       0.40902401     3.62751100     2.21900298    -1.61282559    -0.82707611     0.75564827
O       5.06074303     1.79561599     6.91212901    -0.24276956    -0.09057280    -0.20450639
O       2.69318401     2.17749501     2.06080301    -0.07973791    -0.07903677     1.12088030
O       2.28360399     3.76918699     7.05659397    -1.06159372    -2.54654853    -1.86169304
O       0.04651002     0.69507400     2.12150102     0.49140125     0.56076321     0.34843423
O       2.25477198     0.76591702     6.64026801     1.55903603     1.14615451     0.35745161
O       2.81327999     4.82655002     2.39959499     0.85875495     0.75689011    -0.16660163
