# total energy = -19074.63887603 eV

CRYSTAL
PRIMVEC
        5.17600016     0.00000000     0.00000000
        0.00000000     5.50899976     0.00000000
        0.00000000     0.00000000     9.26300011
PRIMCOORD
22 1
Ti      1.81351499     3.39077001     3.30635100     1.13669027    -0.01603983    -0.78875972
Ti      3.53447100     2.21226899     5.84625802    -1.11373237    -0.13184622    -0.28265510
Ti      4.51555102     2.29951699     1.19146200    -1.12214811    -1.26792457     0.07719303
Ti      0.68370902     3.24579201     8.13831001     1.03631437     1.22144518    -0.18723192
Ti      1.89247601     0.58233898     1.25478599     0.50137867     0.23219898    -0.38428571
Ti      3.15685599     4.92507098     8.01573197     0.54351238     1.05013894     1.12760990
Ti      0.58725498     0.17046598     6.08104503     0.64692373     1.13788918    -1.59708400
Ti      4.43966399     4.88632599     3.40839198     0.06726445     1.14652423    -0.53463719
O       3.54713803     3.52850099     4.31194002    -0.16087116    -1.81371341     2.65938812
O       0.99717600     2.02516700     0.16600502    -0.24298837    -0.65231534    -0.04448756
O       4.34536000     3.77000102     9.09642199    -0.75752980    -0.56560897    -0.12601855
O       3.49200199     0.80564299     0.16288002     0.60838031     1.10802555    -0.38604100
O       1.71262999     4.74802398     9.18473802    -1.49175127    -0.73407465    -0.20115316
O       4.38118202     0.76601799     4.74233999    -0.55347464     0.70507774     1.22144903
O       1.04201298     4.73052002     4.30015799    -0.97637062     0.41713130     3.25780000
O       0.22861198     3.64384702     2.28083200    -0.56802683    -1.00609001    -0.21848394
O       5.06148700     2.17635400     6.80994700     0.45402588    -1.30309779    -0.39552092
O       2.76549698     2.20994903     2.14514000     0.31415318    -0.95700146    -0.20749762
O       2.31701899     3.49386300     7.09159402     0.39619172    -0.88611124    -1.28773261
O       0.12635001     0.81368199     2.16076502     0.42211693     0.05397622     0.16952395
O       2.30151601     0.66864901     6.77721098     0.18970249     0.77115563    -1.04798692
O       2.70034298     4.79919802     2.45263903     0.67023902     1.49026105    -0.82338889
