# total energy = -19959.49354070 eV

CRYSTAL
PRIMVEC
        7.60600008     0.00000000     0.00000000
        0.00000000     7.60600008     0.00000000
       -1.89786986    -1.89786986     4.85670466
PRIMCOORD
24 1
Ti      3.81558102     6.54575801     1.27811001    -0.31200914     0.84483370     0.08882959
Ti      3.61560398     2.90588601     1.12299202     1.61770888    -0.38686915     1.95110447
Ti      0.01524999     6.53173698     1.18820301     0.38940709    -1.68842736     0.15120226
Ti      0.03479801     2.77088998     1.11468002    -1.62730553     2.12165763     1.17539284
Ti      5.64431822     2.84656122     3.50786582     1.10424011    -0.62808165     2.72247504
Ti      5.82450021    -1.06909579     3.72830080    -1.28155656     1.09230762    -1.18990159
Ti      1.90113722     3.00396621     3.64282783    -1.26553010     1.52069213    -0.68245536
Ti      1.83515125    -0.77730878     3.75968180     1.61817528    -2.44931040    -0.89412537
O       3.97952902     4.72906600     0.63637702    -0.26870223     0.59038027     1.78999574
O       3.78520302     0.94092202     0.91189702    -0.04531005     1.25070023    -0.97143435
O       0.08336198     4.61131300     0.68889803    -0.60606580     2.85447656     1.15717452
O       0.13246598     0.88553997     0.91276101    -0.27746764    -0.58647836    -1.04857133
O       5.84823222     4.76364122     3.95378883    -0.90707113     0.18014955     1.89888406
O       5.85735222     1.02778324     3.99192383    -0.34330796    -3.01348289     0.13813797
O       1.80495825     4.84000922     4.07456582     0.45374460    -0.38396432     0.84922875
O       1.64174823     1.09029522     4.08676383     0.07246194    -2.02597091    -0.91137310
O       3.76645522     2.98944823     3.26572580    -1.53341652    -0.11627767    -0.82209537
O       3.83703122    -0.96168376     3.30975382    -0.34179281     0.47600162    -0.09163209
O      -0.10874878     3.12723720     3.18758082     3.09511596    -1.06502974    -0.33500612
O       0.07352722    -1.09816080     3.20812083    -0.72615591     0.95507313    -0.29630638
O       5.68661599     6.43871900     1.63388403     1.48526411     0.65512890     0.28684266
O       5.70742398     2.96903501     1.79284702    -0.83500797    -0.70657361    -5.39913506
O       1.94768402     6.37421499     1.67749802    -0.34051806     0.85699091     0.15202990
O       1.84935198     2.94922398     1.58807098     0.87509920    -0.34792618     0.28073809
