# total energy = -19947.69546440 eV

CRYSTAL
PRIMVEC
        4.90307247     0.00000000     0.00000000
        1.28454251     5.05778071     0.00000000
        0.00000000     0.00000000     8.84586782
PRIMCOORD
24 1
Ti      2.53834670     2.99723631     3.28175404     2.34532955    -1.51266334     0.75730663
Ti      3.64926842     2.06054473     5.56411428    -2.34532955     1.51266334    -0.75730663
Ti      4.75190765     2.06054648     1.14114481    -4.12262429    -0.08264069     1.88522584
Ti      1.43570749     2.99723476     7.70472361     4.12262429     0.08264069    -1.88522584
Ti      1.89607555     0.46834600     1.14118027     2.34621324    -1.51433302    -0.75487848
Ti      4.29153959     4.58943524     7.70468815    -2.34621324     1.51433302     0.75487848
Ti      0.79343625     0.46834406     5.56407882     4.12222012     0.08196706     1.88218320
Ti      5.39417889     4.58943713     3.28178950    -4.12222012    -0.08196706    -1.88218320
O       2.00416265     1.78093068     4.51397885    -1.13895259    -0.32914915    -0.82104893
O       4.18345241     3.27685037     4.33188947     1.13895259     0.32914915     0.82104893
O       1.35202598     1.78095109     0.09107319     1.31121322    -1.01045086    -0.25259941
O       4.83558920     3.27683004     8.75479488    -1.31121322     1.01045086     0.25259941
O       3.54118125     0.74795990     0.09104449     1.13861063     0.32859559    -0.82087847
O       2.64643387     4.30982114     8.75482358    -1.13861063    -0.32859559     0.82087847
O       4.19331803     0.74793953     4.51400755    -1.31103067     1.01015647    -0.25257087
O       1.99429705     4.30984157     4.33186077     1.31103067    -1.01015647     0.25257087
O       0.95947153     3.07642905     2.38948972    -0.55444806    -1.29027106    -1.70458444
O       5.22814354     1.98135199     6.45637859     0.55444806     1.29027106     1.70458444
O       3.13288497     1.98130483     2.03347259     1.18737676    -1.84510145    -1.96688693
O       3.05473015     3.07647626     6.81239558    -1.18737676     1.84510145     1.96688693
O       0.31720036     0.54753859     2.03344434    -0.55467637    -1.29060685     1.70521101
O       5.87041476     4.51024250     6.81242383     0.55467637     1.29060685    -1.70521101
O       2.41245898     0.54758575     6.45640680    -1.18767501     1.84525237    -1.96686714
O       3.77515613     4.51019529     2.38946147     1.18767501    -1.84525237     1.96686714
