# total energy = -19959.27585675 eV

CRYSTAL
PRIMVEC
        7.60600008     0.00000000     0.00000000
        0.00000000     7.60600008     0.00000000
       -1.89786986    -1.89786986     4.85670466
PRIMCOORD
24 1
Ti      3.77328600     6.74983299     1.19254898    -0.16402744    -0.74363016    -0.47434531
Ti      3.67798102     2.89370001     1.15326699     1.06284173     0.48732013     2.00038688
Ti      0.04493101     6.64958200     1.19390098     0.28427567     0.22205135     0.65172219
Ti     -0.03261600     2.75781999     1.29901997    -0.88267136     0.25070271    -0.34926033
Ti      5.76551420     2.73373724     3.73300979    -1.33170286    -0.29113332    -0.96756613
Ti      5.77950924    -1.05156875     3.55541081    -0.15105751     0.74916780     0.10447656
Ti      1.80221922     2.74771620     3.57844680     2.80650927     2.03765735     1.93638207
Ti      1.95246424    -0.86902075     3.69728180     0.19340719    -1.88392897    -0.65785864
O       3.89218800     4.87727600     0.71661099    -0.29855070    -1.37029308     0.55895238
O       3.69286598     1.01099499     0.87461903     0.47597899     0.03812279    -0.74200162
O       0.19729501     4.71033799     0.90588800    -1.36797137     0.52057454    -0.83264075
O      -0.07198499     0.93470901     0.70892199     0.62118467     0.81523489    -0.19427031
O       5.84980923     4.69596421     3.84475879     0.02012892     0.73076333     1.29723464
O       5.90268620     0.97711722     3.82710883    -1.09326947    -1.43542994     2.18655384
O       1.70880224     4.80383424     4.06545783     0.28901267     0.73611225     0.33052495
O       1.68882321     0.91729722     4.04923881     0.78130892     1.09656742     1.31328784
O       3.59775023     2.56053821     3.15866080     1.71915205     0.60286092     0.41377936
O       3.86572025    -0.87672679     3.41586783    -0.34282819    -0.22309625    -1.06892394
O       0.02137622     2.60777321     3.26111883    -1.30236065     0.80201993    -1.57922434
O       0.15078223    -0.61052179     3.08617781    -2.44744789    -1.87327252     0.26422491
O       5.74963999     6.75457500     1.65759000    -0.28939268    -0.52217916    -0.71016467
O       5.62570700     2.77091898     1.79177501     1.07656423     0.77777056    -1.49856829
O       1.90624198     6.89460001     1.70536301     1.55373544    -0.92673571    -0.85991606
O       1.88426800     3.08651802     1.67111699    -1.21281964    -0.59722661    -1.12278471
