# total energy = -4984.34511475 eV

CRYSTAL
PRIMVEC
        4.41165193     0.00000000     0.00000000
       -0.00000982     4.41165193     0.00000000
       -2.20586056    -2.20586547     5.63024902
PRIMCOORD
6 1
Ti     -0.00019428     3.30890604     1.40756210    -0.00174141     0.00174141     0.00000000
Ti      2.20597570    -1.10311971     4.22268655     0.00174141    -0.00174141     0.00000000
O       0.00004407     1.10290549     0.91712150    -0.00055690    -0.00241324    -1.25134892
O       2.20573723     1.10288072     4.71312722     0.00055690     0.00241324     1.25134892
O      -0.00002492    -1.10288634     3.73224595    -0.00241324    -0.00055690    -1.25134892
O       2.20580615     3.30867248     1.89800277     0.00241324     0.00055690     1.25134892
