# total energy = -19934.14245102 eV

CRYSTAL
PRIMVEC
        5.96443133     0.00000000     0.00000000
        2.44155049     5.85964227     0.00000000
        0.00000000     0.00000000    10.90386331
PRIMCOORD
24 1
Ti      3.60868009     3.47241869     4.04525551     0.46252312    -2.74305544     0.81826751
Ti      4.79730182     2.38722374     6.85860791    -0.46252312     2.74305544    -0.81826751
Ti      6.13862757     2.38722573     1.40663261    -1.44711330    -0.93114387     0.46988727
Ti      2.26735438     3.47241693     9.49723088     1.44711330     0.93114387    -0.46988727
Ti      2.38790496     0.54259753     1.40667632     0.46252312    -2.74305544    -0.81826751
Ti      6.01807698     5.31704508     9.49718717    -0.46252312     2.74305544     0.81826751
Ti      1.04657912     0.54259538     6.85856414     1.44711330     0.93114387     0.46988727
Ti      7.35940283     5.31704723     4.04529923    -1.44711330    -0.93114387    -0.46988727
O       2.74749159     2.06327972     5.56415800     1.69977184     2.11332623    -0.94004863
O       5.65849026     3.79636273     5.33970543    -1.69977184    -2.11332623     0.94004863
O       1.95419168     2.06330339     0.11226139     0.02447254    -0.82257463     1.41393423
O       6.45179031     3.79633915    10.79160168    -0.02447254     0.82257463    -1.41393423
O       4.43771511     0.86654145     0.11222599    -1.69977184    -2.11332623    -0.94004863
O       3.96826680     4.99310098    10.79163708     1.69977184     2.11332623     0.94004863
O       5.23101509     0.86651782     5.56419334    -0.02447254     0.82257463     1.41393423
O       3.17496672     4.99312469     5.33967003     0.02447254    -0.82257463    -1.41393423
O       1.70179102     3.56416677     2.94540553     0.59262844     2.32597479     2.19475232
O       6.70419083     2.29547568     7.95845790    -0.59262844    -2.32597479    -2.19475232
O       4.15536743     2.29542115     2.50656087     1.01443967     1.67815966     0.97691312
O       4.25061442     3.56422130     8.39730238    -1.01443967    -1.67815966    -0.97691312
O       0.48101586     0.63434543     2.50652601     0.59262844     2.32597479    -2.19475232
O       7.92496605     5.22529700     8.39733718    -0.59262844    -2.32597479     2.19475232
O       3.02983927     0.63440002     7.95849264    -1.01443967    -1.67815966     0.97691312
O       5.37614259     5.22524243     2.94537072     1.01443967     1.67815966    -0.97691312
