# total energy = -4930.28616150 eV

CRYSTAL
PRIMVEC
        5.87301185     0.00000000     0.00000000
       -0.00000762     2.22769384     0.00000000
       -2.93654114    -1.11395266     6.48169407
PRIMCOORD
6 1
Ti     -0.00025094     1.67083343     1.62042323    -0.03450807    -0.02219377    62.76469862
Ti      2.93671410    -0.55709253     4.86127032     0.03450807     0.02219377   -62.76469862
O       0.00006235     0.55690573     1.05581491     0.03269287     0.02259049   -58.18852745
O       2.93640063     0.55683511     5.42587870    -0.03269287    -0.02259049    58.18852745
O      -0.00002546    -0.55696709     4.29666194    -0.00141616     0.00014295    -1.01771654
O       2.93648833     1.67070788     2.18503167     0.00141616    -0.00014295     1.01771654
