# total energy = -19956.60104399 eV

CRYSTAL
PRIMVEC
        5.76061271     0.00000000     0.00000000
        0.00002867     5.54712580     0.00000000
        0.00000000     0.00000000     9.84387603
PRIMCOORD
24 1
Ti      2.08796206     3.28722156     3.65200788     0.04405870    -0.23941916     0.10252226
Ti      3.67267932     2.25990413     6.19186848    -0.04405870     0.23941916    -0.10252226
Ti      4.96816802     2.25990603     1.26989098     0.04519255     0.23925949    -0.10223636
Ti      0.79247342     3.28721993     8.57398555    -0.04519255    -0.23925949     0.10223636
Ti      2.08794778     0.51365877     1.26993047     0.04405870    -0.23941916    -0.10252226
Ti      3.67269365     5.03346708     8.57394606    -0.04405870     0.23941916     0.10252226
Ti      0.79245908     0.51365675     6.19182905    -0.04519255    -0.23925949    -0.10223636
Ti      4.96818229     5.03346916     3.65204737     0.04519255     0.23925949     0.10223636
O       1.82328041     1.95323722     5.02325471     0.78483236     0.61998422    -0.03559822
O       3.93736103     3.59388846     4.82062165    -0.78483236    -0.61998422     0.03559822
O       1.05707990     1.95325966     0.10134823    -0.78482156     0.61970500    -0.03549126
O       4.70356159     3.59386608     9.74252791     0.78482156    -0.61970500     0.03549126
O       3.93734669     0.82032551     0.10131631    -0.78483236    -0.61998422    -0.03559822
O       1.82329474     4.72680018     9.74255983     0.78483236     0.61998422     0.03559822
O       4.70354726     0.82030313     5.02328669     0.78482156    -0.61970500    -0.03549126
O       1.05709406     4.72682261     4.82058973    -0.78482156     0.61970500     0.03549126
O       0.20931392     3.37407638     2.65907656     0.04628193    -0.13670921     0.18590497
O       5.55132751     2.17304936     7.18479980    -0.04628193     0.13670921    -0.18590497
O       3.08962537     2.17299773     2.26289292     0.04704966     0.13691541    -0.18612943
O       2.67101600     3.37412801     7.58098333    -0.04704966    -0.13691541     0.18612943
O       0.20929958     0.60051342     2.26286145     0.04628193    -0.13670921    -0.18590497
O       5.55134179     4.94661232     7.58101474    -0.04628193     0.13670921     0.18590497
O       2.67100172     0.60056505     7.18483121    -0.04704966    -0.13691541    -0.18612943
O       3.08963971     4.94656063     2.65904515     0.04704966     0.13691541     0.18612943
