# total energy = -4958.17197436 eV

CRYSTAL
PRIMVEC
        4.32608109     0.00000000     0.00000000
       -0.00000655     2.59564865     0.00000000
       -2.16306491    -1.29787168     4.71128890
PRIMCOORD
6 1
Ti     -0.00018543     1.94682875     1.17782191    -0.01838005    -0.02431879    32.36991310
Ti      2.16319492    -0.64905187     3.53346641     0.01838005     0.02431879   -32.36991310
O       0.00004582     0.64890383     0.76743037     0.01783086     0.02037471   -20.50523023
O       2.16296357     0.64887300     3.94385801    -0.01783086    -0.02037471    20.50523023
O      -0.00001782    -0.64891247     3.12307482    -0.00145422    -0.00020029     0.70992787
O       2.16302716     1.94668925     1.58821351     0.00145422     0.00020029    -0.70992787
