# total energy = -19961.37684388 eV

CRYSTAL
PRIMVEC
        7.60600008     0.00000000     0.00000000
        0.00000000     7.60600008     0.00000000
       -1.89786986    -1.89786986     4.85670466
PRIMCOORD
24 1
Ti      3.80368702     6.48625398     1.24892202     0.68573712     1.53787122     0.13131014
Ti      3.77832001     2.79929500     1.23524501     0.34953055    -1.12930040    -0.27625871
Ti      0.03870598     6.73205401     1.22973702    -0.67700591    -0.66873801    -0.28328014
Ti      0.00156499     2.90921400     1.15931702    -0.10510699     0.66634868    -0.47403369
Ti      5.69585521     2.96427924     3.56758083    -0.80112108    -0.47766898     0.43979302
Ti      5.71999025    -0.88998379     3.65816783    -0.19616162     0.48817400    -0.07771934
Ti      1.82253624     2.80941324     3.61196182     0.87698896    -0.35288764    -0.18606309
Ti      1.90164322    -0.99672175     3.61895383     0.17509528     0.11444807     1.67713610
O       3.79794100     4.70272900     0.85582000    -0.01709656    -0.91659965    -0.34397465
O       3.80990501     0.84633101     0.83844600    -0.02454659     0.12701331    -0.63800843
O       0.11448501     4.84089200     0.65019199    -0.30451900     0.27519864     1.66319069
O       0.00230298     1.08005601     0.72775800     0.15774289    -1.71499509     1.18741327
O       5.71015924     4.82553025     4.08819081     0.15985171     0.28914997    -0.14888415
O       5.74217224     1.08667421     4.10996481    -0.33376917    -0.80071253    -1.42121559
O       1.87114525     4.59647423     4.12340681    -0.42727071     1.64131291    -0.34664294
O       1.88109124     0.88075621     4.06495479    -0.01038855     0.22304405     0.12018832
O       3.69488521     2.94038223     3.29333880     1.27638659    -0.37666495    -0.59548905
O       3.82958924    -0.99815678     3.24892781    -0.86672948     0.11172167     0.10662549
O      -0.06405479     2.87231421     3.05294082     1.02412785     0.30247137     1.48159695
O      -0.01584478    -0.83076478     3.23000379     1.22834808    -0.26187750     0.10291744
O       5.75634202     6.57223100     1.77965198    -0.16567089     0.05318612    -2.05660767
O       5.66376903     2.77567501     1.61767702    -0.02534106     0.49403586    -0.33522441
O       1.91118301     6.52421197     1.67686502    -0.34936934     0.31316074    -0.06007256
O       1.95984901     2.79549598     1.60054798    -1.62971183     0.06230839     0.33330354
