# total energy = -4983.93107281 eV

CRYSTAL
PRIMVEC
        4.07936757     0.00000000     0.00000000
        0.00000000     3.83505416     0.00000000
        0.00000000    -0.00007553     5.45429918
PRIMCOORD
6 1
Ti      2.03968361     1.91748943     2.72714971     0.00000000     0.00000000     0.00000000
Ti      0.00000000     0.00000000     0.00000000     0.00000000     0.00000000     0.00000000
O       2.03968361     0.74738090     1.06296264     0.00000000     0.51926559     1.47418677
O       2.03968361     3.08759797     4.39133684     0.00000000    -0.51926559    -1.47418677
O       0.00000000     1.17007837     3.79011341     0.00000000    -0.51949699     1.47491388
O       0.00000000     2.66490049     1.66418601     0.00000000     0.51949699    -1.47491388
