# total energy = -19928.90596642 eV

CRYSTAL
PRIMVEC
        6.15492076     0.00000000     0.00000000
        1.61251080     6.34912897     0.00000000
        0.00000000     0.00000000    11.10438726
PRIMCOORD
24 1
Ti      3.18643522     3.76248814     4.11964868    -0.06480416    -1.96894562     0.79943983
Ti      4.58099652     2.58664125     6.98473920     0.06480416     1.96894562    -0.79943983
Ti      5.96516066     2.58664345     1.43250093    -0.15948405    -0.48465673    -0.12651323
Ti      1.80227111     3.76248619     9.67188709     0.15948405     0.48465673     0.12651323
Ti      2.38017995     0.58792370     1.43254545    -0.06480416    -1.96894562    -0.79943983
Ti      5.38725182     5.76120594     9.67184257     0.06480416     1.96894562     0.79943983
Ti      0.99601571     0.58792126     6.98469468     0.15948405     0.48465673    -0.12651323
Ti      6.77141605     5.76120832     4.11969321    -0.15948405    -0.48465673     0.12651323
O       2.51586376     2.23563638     5.66648409     1.77865692     2.00806342    -0.62933610
O       5.25156792     4.11349302     5.43790380    -1.77865692    -2.00806342     0.62933610
O       1.69722410     2.23566201     0.11432592    -0.71112703     0.07742597     0.96296025
O       6.07020772     4.11346750    10.99006165     0.71112703    -0.07742597    -0.96296025
O       4.44531263     0.93892839     0.11428989    -1.77865692    -2.00806342    -0.62933610
O       3.32211911     5.41020100    10.99009768     1.77865692     2.00806342     0.62933610
O       5.26395242     0.93890281     5.66652012     0.71112703    -0.07742597     0.96296025
O       2.50347927     5.41022665     5.43786777    -0.71112703     0.07742597    -0.96296025
O       1.20444299     3.86190030     2.99957221     0.47867017     1.55635925     1.64264808
O       6.56298869     2.48722910     8.10481568    -0.47867017    -1.55635925    -1.64264808
O       3.93277049     2.48716989     2.55265708     0.73643518     1.56571139     0.73212627
O       3.83466126     3.86195956     8.55173062    -0.73643518    -1.56571139    -0.73212627
O       0.39818769     0.68733567     2.55262161     0.47867017     1.55635925    -1.64264808
O       7.36924406     5.66179378     8.55176609    -0.47867017    -1.55635925     1.64264808
O       3.02840596     0.68739487     8.10485109    -0.73643518    -1.56571139     0.73212627
O       4.73902578     5.66173452     2.99953674     0.73643518     1.56571139    -0.73212627
