# total energy = -39033.65772277 eV

CRYSTAL
PRIMVEC
        5.93200024     0.00000000     0.00000000
        0.00000000     9.29399984     0.00000000
        0.00000000     0.00000000     9.29399984
PRIMCOORD
46 1
Ti      4.54078198     6.97962102     7.21082300    -2.37720584     0.94005480    -2.33912136
Ti      4.49682899     6.95296001     2.26901701     2.36066593    -0.55075133     0.57093449
Ti      4.42818402     2.30872398     7.04440200    -1.26315311    -0.73952256     0.86270416
Ti      4.23126102     2.39450102     1.91844401     1.21136182     0.38022336     1.15722568
Ti      1.41842300     6.92548401     6.86585701     2.59156702     1.13314420    -1.06343283
Ti      1.62312802     7.09759299     2.42509202    -2.19642663    -1.18918862    -0.13410699
Ti      1.44735799     2.42179498     6.86525798     1.00537961    -0.85872949     0.70329596
Ti      1.29541400     1.97599198     2.55236899    -0.00504399     2.07532814    -0.80392126
Ti      3.24555102     4.71483901     4.70135002    -1.09809543    -0.06434702    -0.03775255
Ti      2.88256898     4.88566299     9.02733800     0.30455088    -1.17441531     0.24874867
Ti      2.91370100     0.05018802     4.63958498     0.29198487    -0.67130037     1.32662647
Ti      2.89850499     9.20337898     0.10056903     0.35596345     1.99536268    -1.62070268
Ti      0.16614599     4.51668198     4.52932101     0.20794139     0.84298636    -1.01620345
Ti      5.89030700     4.59939699     9.25816602     0.42146181    -1.02260035     2.00923919
Ti      5.84249499     9.15732002     4.90332502    -0.36546420     2.25946701    -1.71760656
Ti      0.08701500     9.26693200     9.22142302    -0.85749073    -0.23072857     0.60040192
O       4.48501897     5.71660399     5.55122800    -0.03321095    -1.04402177    -0.20632262
O       4.34313899     5.56029598     0.87929198     0.40623728     0.47095891     0.24524708
O       4.39056798     1.01097499     5.74801801     0.46877964    -1.83563850    -1.94671379
O       4.54083500     1.09171399     0.72227498    -0.64722147    -0.11594368     1.09368264
O       1.35879002     5.67776799     5.53169501     0.29560575    -1.25013613    -0.33091473
O       1.70456898     5.71016401     0.69454599    -1.74417378     0.55285758     1.58852325
O       1.47605702     0.99808301     5.56241301    -0.48071137    -0.55154888    -0.95958465
O       1.42794602     0.68962199     1.08126899    -0.03650814     1.55514312    -0.05924544
O       4.30700401     8.25142001     8.49551899     1.42860341     0.55460053    -0.12669784
O       4.45834400     8.37851298     3.90314398     0.21056957     0.20376283    -0.34351571
O       4.40542098     3.69768102     8.53950500     0.53174547    -0.17414474    -0.32984772
O       4.42223400     3.78248903     3.66554699     0.10155476    -0.26836722    -0.07419769
O       1.53192797     8.26892000     8.46616601    -0.32217760     0.27062645     0.00656017
O       1.37973602     8.36887698     3.87620700     0.25343168     0.53125002    -0.75918277
O       1.41786900     3.81562198     8.19095902    -0.01908376     0.70805302     1.23505429
O       1.53297299     3.60194999     3.76364502     0.05192036    -0.72630966    -0.23211774
O       2.93640202     6.11909001     7.72419801     0.49407211    -0.56519039    -0.18619242
O       2.83602001     6.07676499     3.39861999     1.20515775     0.75703975    -1.33697954
O       2.96856298     1.49119598     8.04361999    -0.08660636     0.05638303    -0.93249627
O       2.97261198     1.25522802     3.05437299     0.61873492     1.00987005     0.22078354
O       5.91198401     6.06372802     7.86913501     0.49703762    -0.63596826     0.86977135
O       0.19855302     5.81686302     2.97295399    -0.57519044     1.73644941     0.37762860
O       0.05520700     1.38291801     8.00459703     0.09680747     0.81951347    -1.55183951
O       2.86273600     8.01084799     6.11158400    -0.09047793    -0.26119332    -0.21484943
O       3.25273899     8.11096499     1.52064300    -1.22854734    -1.47734280     1.23009514
O       2.96958598     3.14833402     6.00745002     0.48339560     1.16467494     0.51408224
O       5.91838398     7.91128302     6.06627299    -0.63572658    -1.43030111     2.64352749
O       0.04347101     8.08528402     1.52052002    -1.02501411    -2.11265543     0.48517763
O       5.92433199     3.16010302     5.93288000    -0.48186888     0.36077682     0.92196323
O       0.11792202     3.40529101     1.51716800    -0.32513180    -1.42818097    -0.58772740
