# total energy = -19958.00721602 eV

CRYSTAL
PRIMVEC
        7.60600008     0.00000000     0.00000000
        0.00000000     7.60600008     0.00000000
       -1.89786986    -1.89786986     4.85670466
PRIMCOORD
24 1
Ti      3.92384502     6.67257602     1.15309802    -1.37089266    -2.37133627     3.05424929
Ti      3.80816000     2.70623198     1.20799403     0.67393550     1.32332672    -1.92863199
Ti     -0.03096899     6.63438599     1.32228599     0.62146826     2.31621771    -0.91304946
Ti     -0.06466599     2.79907301     1.29537400    -0.70739122    -1.12856841    -1.04093541
Ti      5.72316621     2.87831423     3.75251680    -1.21812665     1.29006203    -1.71245279
Ti      5.67380720    -0.85087378     3.69206581    -2.30806808    -1.54325691    -0.53772431
Ti      1.97590123     2.88066521     3.52826682     1.06645259    -0.97304669     1.41955723
Ti      1.81862721    -1.05103376     3.57866080     2.03030270     3.22425943    -0.70829985
O       3.86444001     4.78248702     0.98423402    -0.41551896     0.25956813    -2.64931787
O       3.99632601     0.82675801     0.64642298    -0.60799825     1.02200566     0.45239631
O       7.16563899     5.00864801     0.72195901     1.39736449    -3.20466505     0.73939118
O       0.07888900     0.98836001     0.74264799    -0.83295520     0.62570133     1.75056169
O       5.46633723     4.86343521     3.97518680     1.34021373    -1.57277447     0.80783526
O       5.42853820     0.98671422     4.13653083     0.74203325     1.52923822     0.50857468
O       2.13434124     4.86001721     3.58308779    -1.43840857    -4.56956472     1.61481793
O       2.31026622     0.87475524     4.19807780    -1.55137208     1.77027383    -0.87589290
O       3.76031121     2.87666622     3.12173783     0.46680349    -0.39260451     1.20148389
O       3.73189222    -1.09866077     3.11994180     1.41199921     1.59753497    -0.73807529
O       0.06542822     2.68015222     3.24807282    -1.08557801     0.46191711     0.20428913
O      -0.08731377    -0.96736977     3.34704579     1.29531017     0.19591685    -0.83370211
O       5.68938300     6.71541001     1.77633801     0.85756170     0.97523856    -1.12072397
O       5.63372001     2.87757899     1.72394301     2.46780101    -0.36619182     0.46629133
O       1.91729803     6.92133802     1.55331600    -1.62580503    -0.99800852     0.09456855
O       1.91924402     2.74675998     1.48064303    -1.20913113     0.52875785     0.74478998
