# total energy = -19516.90714504 eV

CRYSTAL
PRIMVEC
        5.93400000     0.00000000     0.00000000
        0.00000000     9.29699974     0.00000000
        0.00000000     0.00000000     4.64899994
PRIMCOORD
23 1
Ti      4.46050299     7.17379398     2.15982001     0.24893404     0.17796026     0.05110069
Ti      4.50418302     2.23978298     2.36773201    -1.11554243    -0.24595233    -0.38941994
Ti      1.35375600     7.04526900     2.20779300    -0.33514445    -0.46816746     0.87843418
Ti      1.40952499     2.30030101     2.41623301     1.30576068    -0.48484827    -0.85242746
Ti      3.00113998     4.36448499     0.17360199    -0.72819299     0.70361529     1.21106640
Ti      3.00524301     0.03464402     4.57159999    -0.52485697    -0.24911479    -0.35050988
Ti      0.02318299     4.61530199     4.63356199    -0.13690255     1.23414977     0.00753411
Ti      0.06837600     0.14303598     0.04043099     0.46790675    -0.76557042    -0.10826328
O       4.48130198     5.57767400     1.01187803    -0.67074424    -0.22278951    -0.62201771
O       4.38253999     0.90746601     0.95490400     0.81387889    -0.45638898     0.10294984
O       1.58885898     5.47316298     0.99750298    -0.36323093     0.06412539    -0.55806560
O       1.72338399     1.00419199     0.86466398    -2.44787727    -0.51227758     0.53040361
O       4.48108899     8.60875800     3.59680798     0.11786970    -1.63364176     0.01741177
O       4.36817600     3.71011001     3.80159899     1.24456737     0.27272730    -1.09923777
O       1.31176500     8.44290798     3.53020901     1.01348553     0.26530966     2.14026368
O       1.42071402     3.52394900     3.93546702     0.52799500     1.41144977    -1.02688870
O       2.91717299     1.48455100     3.29644401     0.74365587    -0.32813202    -0.35244901
O       5.92852101     6.03503899     3.17306998    -0.38388796    -0.24476191     0.70828468
O       0.01006802     1.39328999     3.32179202    -0.22667342     1.12191234    -1.01712236
O       2.78327400     7.93821899     1.41936102     2.30335936    -0.95840168    -0.22031508
O       3.01794802     3.03379101     1.33222003    -0.00283721     0.95552153     1.21421523
O       0.05523700     8.00765699     1.41300100    -1.28723202    -0.21588661    -1.00369400
O       0.01651700     3.09387501     1.36238800    -0.56429025     0.57916203     0.73874635
