# total energy = -19074.56405939 eV

CRYSTAL
PRIMVEC
        5.17600016     0.00000000     0.00000000
        0.00000000     5.50899976     0.00000000
        0.00000000     0.00000000     9.26300011
PRIMCOORD
22 1
Ti      2.00704501     3.43007000     3.33228799    -0.53432917     1.35466488     0.05478149
Ti      3.49585800     2.33199402     6.03079001    -0.88434900     0.10600637    -1.04302906
Ti      4.28898801     2.32883600     1.25787798     1.63510343    -0.41609463    -1.09127532
Ti      0.70582402     3.06055700     8.09506998     0.41008879     1.84769646     2.12162601
Ti      1.83823900     0.46284700     1.23504001    -1.02359152    -0.25235464    -1.35478444
Ti      3.17123702     5.05248998     7.95573502     0.06278970     0.23159349     1.27341413
Ti      0.53314899     0.24893202     5.95508502     1.38344428     0.35854047    -0.60523328
Ti      4.52454301     4.90946803     3.34987800     0.57732189     0.75085136     0.46116403
O       3.53251998     3.58539902     4.52827202    -0.22026238    -1.21258798     1.04830780
O       0.97830797     1.94199600     0.37165600    -1.33081763     1.23815067    -2.30368203
O       4.22391699     3.66985201     9.09589202     0.70596503    -1.22125594    -0.00904694
O       3.37702199     0.82599901     0.14596201     1.09066365     0.94046669    -0.56835362
O       1.57855701     4.69812400     9.08678001    -0.56074958     0.08860770     0.20862864
O       4.39663500     0.72627598     4.81884002    -1.64069584     0.84307430    -0.22517858
O       1.18453200     4.95050001     4.28677500    -0.65817463    -1.17727412     1.24653067
O       0.25642702     3.44931998     2.45448601    -0.49393764    -0.59668616     0.21314607
O       0.10101898     2.38652299     6.45374202     0.60626712    -1.41899365     0.38706661
O       2.73924698     2.06267699     2.27691598     0.05854687    -0.69624960     0.36227397
O       2.42251000     3.46175602     7.20930098    -0.21329108    -1.23262228    -1.23160952
O       0.06634602     0.66266099     2.15759800    -0.04866432     0.15841010    -0.05596779
O       2.30086602     0.67982899     6.62490001     0.40263516     0.68188278     0.25774702
O       2.85977901     4.74148600     2.26295401     0.67603712    -0.37582677     0.85347415
