# total energy = -4989.40331695 eV

CRYSTAL
PRIMVEC
        2.83419138     0.00000000     0.00000000
        0.22189921     4.43520549     0.00000000
       -0.00000123    -0.00005763     4.44214236
PRIMCOORD
6 1
Ti      1.52804458     2.21757378     2.22107108     0.00000000     0.00000000     0.00000000
Ti      0.00000000     0.00000000     0.00000000     0.00000000     0.00000000     0.00000000
O       1.46034026     0.86434488     0.86570806    -0.59045895     0.63943282     0.64323857
O       1.59574884     3.57080268     3.57643405     0.59045895    -0.63943282    -0.64323857
O       0.06770371     1.35320553     3.08678004     0.59021469    -0.63964031     0.64345660
O       0.15419417     3.08194222     1.35536207    -0.59021469     0.63964031    -0.64345660
