# total energy = -19958.20112891 eV

CRYSTAL
PRIMVEC
        5.93400000     0.00000000     0.00000000
        0.00000000     9.29699974     0.00000000
        0.00000000     0.00000000     4.64899994
PRIMCOORD
24 1
Ti      4.39415702     7.00397301     2.33950998     2.58621681    -1.78128201    -1.18238239
Ti      4.49705897     2.25078198     2.31654300     0.15038208     1.09051864     0.10082328
Ti      1.56754197     6.95627499     2.32700002    -3.60059271    -1.31789732    -0.28256948
Ti      1.48544298     2.49989699     2.32080801     0.22889846     0.02306820    -0.88102302
Ti      2.95004299     4.82881998     0.00315300     0.39707001    -2.46798381     2.09001505
Ti      3.07563501     9.05870102     4.59984398    -1.01488936     3.04562966    -1.48089041
Ti      5.92651500     4.63311902     4.44381300    -0.95755451    -1.42726669     2.77420797
Ti      0.01893200     9.17164099     0.22021399     2.80346328     2.43702155     0.19878800
O       4.46759200     5.66797598     0.89536198    -1.08784186     0.47537812     0.16299695
O       4.47139901     0.76773999     0.87477598    -1.63806534     0.56995053     0.28925513
O       1.34959302     5.46115198     1.00830402     1.42117446     1.71260294     0.20913669
O       1.26524899     1.06484100     1.08455401     0.05562404    -2.99394918    -2.69087489
O       4.58278299     8.30878002     3.76518800    -1.84828113    -0.05034453    -0.51230021
O       4.39462799     3.74593701     3.89726101    -1.14753622    -0.05696024    -1.39536109
O       1.40559802     8.43242302     3.73084201     1.68657128    -0.28979120     0.09641975
O       1.43664501     3.82070499     3.75295702     1.45054289    -0.22001992    -0.22460677
O       2.96391802     5.97311901     2.98704698     0.51932652     0.14423354     1.82253229
O       2.82979402     1.44107099     3.08521598     1.80393036    -0.94557342     1.29443831
O       0.17854700     6.09625601     3.45534398    -0.76719176     2.52797564    -2.95114827
O       0.01610202     1.54991100     3.15508198    -1.76506220    -0.78677791     1.27249676
O       2.96196001     7.86231698     1.34560900     0.13526039     0.00515198     0.72390593
O       2.86741800     3.41858097     1.43376401     0.84996408    -0.00411402    -0.52630296
O       5.90959599     7.72502999     1.42580402     0.31492503     0.70781056     0.09097286
O       5.82157100     3.28699200     1.34358601    -0.57633407    -0.39738111     1.00147051
