# total energy = -4990.07841441 eV

CRYSTAL
PRIMVEC
        3.90917444     0.00000000     0.00000000
        0.58308767     3.86544351     0.00000000
       -2.24616628    -1.93275207     5.00314729
PRIMCOORD
6 1
Ti      0.43717359     2.89923038     1.25078655    -0.00015247     0.00015247     0.00000000
Ti      1.80892264    -0.96653859     3.75236020     0.00015247    -0.00015247    -0.00000000
O       0.14581303     0.96635510     0.81497168    -0.00042655    -0.00065152    -0.55215901
O       2.10028303     0.96633655     4.18817507     0.00042655     0.00065152     0.55215901
O      -0.14578911    -0.96633452     3.31654533    -0.00065152    -0.00042655    -0.55215901
O       2.39188512     2.89902616     1.68660143     0.00065152     0.00042655     0.55215901
