# total energy = -4988.79432196 eV

CRYSTAL
PRIMVEC
        3.10031909     0.00000000     0.00000000
        0.00000000     3.97451067     0.00000000
        0.00000000    -0.00005836     4.46073035
PRIMCOORD
6 1
Ti      1.55015955     1.98722611     2.23036527     0.00000000     0.00000000     0.00000000
Ti      0.00000000     0.00000000     0.00000000     0.00000000     0.00000000     0.00000000
O       1.55015955     0.77456221     0.86933070     0.00000000    -0.10224073    -0.28859821
O       1.55015955     3.19989000     3.59139985     0.00000000     0.10224073     0.28859821
O       0.00000000     1.21264029     3.09969678     0.00000000     0.10126679    -0.28757285
O       0.00000000     2.76181193     1.36103377     0.00000000    -0.10126679     0.28757285
