# total energy = -4972.24178305 eV

CRYSTAL
PRIMVEC
        5.26545847     0.00000000     0.00000000
       -0.00000746     2.83524722     0.00000000
       -2.63275847    -1.41768740     5.68038572
PRIMCOORD
6 1
Ti     -0.00022537     2.12653311     1.42009620    -0.01038623    -0.01166896    18.90704246
Ti      2.63291752    -0.70897313     4.26028906     0.01038623     0.01166896   -18.90704246
O       0.00005589     0.70880070     0.92528835     0.00823370     0.01219192   -12.42177917
O       2.63263614     0.70875917     4.75509703    -0.00823370    -0.01219192    12.42177917
O      -0.00002150    -0.70881992     3.76548121    -0.00209674     0.00000309    -2.10235687
O       2.63271343     2.12637979     1.91490417     0.00209674    -0.00000309     2.10235687
