# total energy = -4990.57596893 eV

CRYSTAL
PRIMVEC
        3.76629304     0.00000000     0.00000000
        0.18818897     3.76158852     0.00000000
       -1.97727444    -1.88082607     4.80813133
PRIMCOORD
6 1
Ti      0.14098958     2.82133423     1.20203270    -0.00009590     0.00009590     0.00000000
Ti      1.83621751    -0.94057223     3.60609836     0.00009590    -0.00009590     0.00000000
O       0.04708686     0.94039098     0.78320528    -0.00008150     0.00036792     0.13809529
O       1.93012007     0.94037092     4.02492584     0.00008150    -0.00036792    -0.13809529
O      -0.04706829    -0.94037331     3.18727094     0.00036792    -0.00008150     0.13809529
O       2.02427522     2.82113515     1.62086023    -0.00036792     0.00008150    -0.13809529
