# total energy = -19517.63712720 eV

CRYSTAL
PRIMVEC
        5.17600016     0.00000000     0.00000000
        0.00000000     5.50899976     0.00000000
        0.00000000     0.00000000     9.26300011
PRIMCOORD
23 1
Ti      1.92258699     3.18247801     3.39662298    -0.38360899     0.05489256     1.85409234
Ti      3.34145302     2.25165603     5.82369898     0.98961489     0.54441613    -1.74977776
Ti      4.39745702     2.02254201     1.53861699     0.93319509     0.44882633    -2.34146595
Ti      0.85549398     3.42548499     7.74999599    -1.08806889    -0.40943959     2.26333858
Ti      1.97664600     0.27838697     1.33725499     1.30765455    -1.01880155    -1.77737702
Ti      3.17139699     5.22186099     7.83724398     0.67973616    -0.98527512     2.75917164
Ti      0.69546702     0.53820999     5.92509998    -0.56506029    -0.01411125    -2.48629162
Ti      4.49853802     4.92036199     3.33087498     0.39227721     0.10049340     3.01906887
O       1.76556502     2.00286699     4.85636800    -1.91836917    -0.60661448    -0.49809049
O       3.49789999     3.62711999     4.42094699     0.79063406    -0.00745852     0.77817886
O       0.12141501     2.67364101     0.06622098    -0.07634431    -0.04040901     0.19372884
O       3.35158999     0.86649002     0.16933497     0.61993614     0.80128614    -0.07671918
O       1.86602101     4.58641500     9.10224998    -0.37490709    -0.36902800    -0.34442125
O       4.18322898     0.84506400     4.86056898     1.03916804    -1.10017365    -0.86131396
O       1.01172499     4.79907599     4.41275098    -0.63421914     0.26081177     0.78644984
O       0.17509602     3.35226898     2.60937900     0.02221357    -0.74389755    -0.58836530
O       5.03285501     2.10618102     6.82869400    -0.09377614     0.45081174    -0.30479102
O       2.70674502     1.70057301     2.40350799    -0.16187106     1.22391729     0.15179002
O       2.52078197     3.56051198     6.94201498     0.64824837     0.43460298     0.52966416
O       0.27714399     0.54350001     1.96020102    -1.39874929     0.24158300     0.43864810
O       5.02832700     4.96281698     7.40696102    -0.45781517    -0.06490341    -0.76516984
O       2.32477102     0.92157700     6.93249498    -0.71871230     1.02957525    -0.53881472
O       2.85031398     4.53007101     2.31023801     0.44882350    -0.23110421    -0.44153288
