# total energy = -19516.07438978 eV

CRYSTAL
PRIMVEC
        5.17600016     0.00000000     0.00000000
        0.00000000     5.50899976     0.00000000
        0.00000000     0.00000000     9.26300011
PRIMCOORD
23 1
Ti      1.85488898     3.30320599     3.42629400     0.25044817    -1.18095029     2.23946357
Ti      3.33020398     2.20305099     5.79581002     1.14731382     1.03118707    -2.16723919
Ti      4.33601600     2.13016899     1.60260399     0.47624613    -0.86347086    -2.87002376
Ti      0.79839798     3.30756001     7.76289198     0.07623915     0.78200723     0.87692494
Ti      1.88312000     0.22633599     1.35208899     0.30765061    -0.15888266    -2.64605154
Ti      3.34301801     5.15685299     7.87859400    -1.18016610    -0.43398926     1.48252074
Ti      0.81355398     0.57609903     5.94442098    -0.59463390    -0.34556051    -2.97693259
Ti      4.50585999     4.87366199     3.32844097     0.00500903     1.22115978     3.99285656
O       1.78054899     1.89736799     4.72431298    -0.48456417    -0.48010459    -0.74061785
O       3.57972799     3.48320500     4.34121500     0.12574730    -0.06627561     0.47689199
O       4.93633901     2.80712201     9.18733803    -0.24195375    -0.39941614     0.27752883
O       3.65047200     0.44764098     0.29536002    -0.30509287    -0.29232014    -0.52824440
O       1.80770399     4.39386502     8.93152099     0.85381148     2.03077630     2.12963962
O       4.37688700     0.71823201     5.05189598    -1.86501825    -0.68547333    -2.23377243
O       0.96282499     4.65907299     4.64516600     0.29437985    -0.66344128    -1.10315433
O       0.08925199     3.48029299     2.46231302     1.64480164     0.01800030    -0.93380162
O       5.12792700     2.27219302     6.47348399     0.57158087     0.26388039     1.33395721
O       2.52320100     1.89471602     1.90297097    -0.46426813     2.28306152     0.77929369
O       2.60580499     3.54259001     6.90795502     0.09569701     0.87784488     0.34074637
O       0.29567303     0.83073399     2.34314098    -0.72560903    -0.76787721    -0.44662315
O       5.07763198     4.87694500     7.11606000    -0.39447499    -0.37224034     1.54455969
O       2.41594302     1.04963900     7.00760402    -0.28201901    -1.61248414     1.54323788
O       2.64153001     4.91617201     2.70062302     0.68887490    -0.18543060    -0.37115970
