# total energy = -19514.39719294 eV

CRYSTAL
PRIMVEC
        5.17600016     0.00000000     0.00000000
        0.00000000     5.50899976     0.00000000
        0.00000000     0.00000000     9.26300011
PRIMCOORD
23 1
Ti      1.81093700     3.23777201     3.35950098    -0.14488814    -1.74312169     3.13386944
Ti      3.43114798     2.36542300     5.90043000     0.41648210    -1.59155947    -3.53860442
Ti      4.27655399     2.08502298     1.46675202     0.95834743    -0.47024492    -0.98377154
Ti      0.84316499     3.48744800     7.81485200     0.05529905     0.10863069     1.21448365
Ti      2.09342599     0.06533402     1.54770000    -2.03224929    -1.29501346    -2.52567759
Ti      3.23877300     5.23518699     7.92791099    -0.31024356     1.97519546     0.98382116
Ti      0.78771902     0.66823201     6.01886299    -0.35754082     1.11413115    -2.91534539
Ti      4.36069502     4.92359801     3.20214298     1.44505770    -1.29978646     2.63108643
O       1.81395902     1.82880102     4.75018102    -0.07250565     0.52634538     0.01355486
O       3.56481900     3.61473100     4.34631902    -0.36731488    -0.66153712     1.90770757
O       5.09211699     2.80433298     9.22323598    -0.48558644     0.51786999     0.71313584
O       3.52882902     0.53097502     0.32231800     1.45154768    -0.07850995    -0.97575844
O       1.65957399     4.82179098     9.02454299    -0.31851712    -1.13276908    -0.53946958
O       4.35528599     0.84819599     5.12115200    -0.76661969    -0.10762616    -2.45829461
O       0.93052898     4.64576900     4.20043301     1.10658110     0.82101422     1.01006751
O       0.21014602     3.32822798     2.47219101    -0.98520056    -1.00427995    -1.19937996
O       4.99279302     2.01152401     7.02173501     0.91200688     1.12581270    -0.83385766
O       2.47313999     1.73734299     1.90783401    -0.45737140     2.69215478     2.04738949
O       2.82257202     3.62930502     7.02124499    -2.23341556     1.30457591     1.61343057
O       0.13563702     0.46817502     2.03929503     1.04206541     1.52809742    -0.63832108
O       5.04383999     4.95896298     7.01555803    -0.19743149    -2.76382225     1.87268631
O       2.35074499     1.17159801     7.09512300     0.41219118    -1.11835033     0.52287207
O       2.96522202     3.99918102     2.08997100     0.92930604     1.55279288    -1.05562439
