# total energy = -19514.92621105 eV

CRYSTAL
PRIMVEC
        5.93400000     0.00000000     0.00000000
        0.00000000     9.29699974     0.00000000
        0.00000000     0.00000000     4.64899994
PRIMCOORD
23 1
Ti      4.34373500     7.19909299     2.14501300     4.22547694     0.32170092     0.45352348
Ti      4.39855898     2.16051302     2.37416500     0.17571877    -1.03266083    -0.06224849
Ti      1.68383899     6.84940399     2.44646898    -3.83184270     0.56420566    -0.24974137
Ti      1.29736301     2.47537200     2.28660802    -1.61930014    -1.52311642    -0.56885601
Ti      3.01368201     4.54712798     0.35038699     1.54250512     0.48123150    -0.06261770
Ti      2.96996101     9.12120801     4.48634700     1.09272259     0.07906351     0.20510546
Ti      5.90275600     4.73471999     4.31931500    -1.38863379     0.51459235     0.44430582
Ti      0.11662701     0.06168598     0.13571100    -1.45347961    -0.58943205     0.83437085
O       4.75616299     5.85451800     0.61957401    -2.15624412    -1.48735596     0.18563886
O       4.41781002     0.72589302     0.95054601    -0.18307727     1.25097919     0.82365243
O       1.60160199     5.70886699     1.02271198     0.61768874    -1.19774397    -1.67038104
O       1.49467400     1.05388898     0.93671200    -0.14719648    -0.43345807     0.33952330
O       4.52688399     8.34720998     3.71984201    -1.10339242    -1.00815563    -0.15563382
O       4.29154198     3.58698798     3.83612500     1.22220571     1.74815642    -0.04054708
O       1.30471800     8.34456298     3.67426498     1.57614801    -0.04909112     1.13474240
O       1.73933498     3.94139201     3.85879199    -1.91268446    -0.67002048    -1.44661399
O       3.17067397     1.22545201     3.40668200    -1.36104173     1.65444353    -1.65315104
O       5.90920598     5.94008501     2.89352300     0.08132325    -0.87810585     1.89403650
O       5.88069201     1.39031898     3.36607802     0.71041689     1.75316133    -1.56942303
O       2.85010300     8.00965501     1.44405799    -0.20636324    -0.86128183     0.38201439
O       2.83635498     3.14003101     1.58784598     1.28385564     1.05458566    -0.53195733
O       5.88038101     7.95654800     1.50716200     1.01183540     0.69411326    -0.91438798
O       5.72831399     3.20217701     1.26744402     1.82335890    -0.38581011     2.22864513
