# total energy = -19516.81372709 eV

CRYSTAL
PRIMVEC
        5.93400000     0.00000000     0.00000000
        0.00000000     9.29699974     0.00000000
        0.00000000     0.00000000     4.64899994
PRIMCOORD
23 1
Ti      4.59817099     6.98353598     2.32423999     1.19162782     0.34144365     0.22318624
Ti      4.37962401     2.28321002     2.34285200     1.58641983    -0.05976969     0.00971235
Ti      1.54456499     7.19272800     2.22653402    -1.19238296     0.07173586    -0.48669407
Ti      1.46779402     2.29598600     2.34649999    -1.66920424    -0.59328665     0.13496600
Ti      3.02738600     4.38719701     0.04159899    -0.62138084     1.86182494     0.05508693
Ti      2.98764802     0.01652499     4.62649203    -0.20481827    -0.96874575     0.06551559
Ti      0.01176901     4.63516900     0.05971199     0.79651109     1.43303779    -0.02123269
Ti      5.89202201     0.16728298     0.08328901     0.31662684    -0.82984854    -0.71495104
O       4.39275798     5.55365798     0.90458898     0.00965707    -0.52234937    -0.43088543
O       4.33726798     0.89622798     1.05663298    -0.24885408    -0.48133769    -2.21038515
O       1.48301199     5.72027500     0.79471898     0.30730196    -0.90126815     0.40997926
O       1.52950799     0.79385800     1.10396900    -0.24070857     0.52041513    -1.42829642
O       4.43558699     8.44195901     3.68777900    -0.46940699    -0.39490899     0.53896719
O       4.47467202     3.71571601     3.64073498    -0.63604488     0.71172841     0.88203346
O       1.10939899     8.31257401     3.80977298     2.83935024     0.14828020    -0.77066120
O       1.51797098     3.79937200     3.67158199     0.02111468    -0.58626985     0.06165276
O       2.98718298     1.30924998     3.13596497    -1.39097761     0.39745053     1.54995155
O       0.06567201     5.98990901     3.19825501    -0.56483044     0.39548441    -0.60130540
O       5.88146000     1.30816601     3.11174300     0.27406401     0.94200652     1.42768835
O       3.15109198     7.91847200     1.34893398    -1.73107066    -1.07860286     1.04474193
O       2.84878202     3.26381198     1.39889101     0.37451885    -0.79083152     0.51463220
O       5.91072901     7.96852201     1.42047700    -0.21307897    -0.53662722     0.40332962
O       5.78347903     3.10817502     1.33997702     1.46556611     0.92043882    -0.65703177
