# total energy = -19891.77147622 eV

CRYSTAL
PRIMVEC
        8.83889141     0.00000000     0.00000000
        0.00002959     4.52941826     0.00000000
        0.00000000     0.00000000    13.35416036
PRIMCOORD
24 1
Ti      3.20369069     2.68412915     4.95429825     0.35283956    -0.48156806     2.80116265
Ti      5.63523051     1.84528931     8.39986225    -0.35283956     0.48156806    -2.80116265
Ti      7.62298509     1.84529092     1.72272865     0.36103084     0.48221340    -2.80336455
Ti      1.21593617     2.68412774    11.63143205    -0.36103084    -0.48221340     2.80336455
Ti      3.20367596     0.41942009     1.72278220     0.35283956    -0.48156806    -2.80116265
Ti      5.63524530     4.10999850    11.63137850    -0.35283956     0.48156806     2.80116265
Ti      1.21592138     0.41941835     8.39980869    -0.36103084    -0.48221340    -2.80336455
Ti      7.62299982     4.11000025     4.95435180     0.36103084     0.48221340     2.80336455
O       2.79757546     1.59488523     6.81452583     0.83566489     1.31431448    -2.42427042
O       6.04134580     2.93453323     6.53963467    -0.83566489    -1.31431448     2.42427042
O       1.62194299     1.59490346     0.13748855    -0.83454466     1.31358866    -2.42340832
O       7.21697834     2.93451500    13.21667154     0.83454466    -1.31358866     2.42340832
O       6.04133101     0.66982410     0.13744524    -0.83566489    -1.31431448    -2.42427042
O       2.79759019     3.85959436    13.21671492     0.83566489     1.31431448     2.42427042
O       7.21696361     0.66980587     6.81456914     0.83454466    -1.31358866    -2.42340832
O       1.62195751     3.85961266     6.53959136    -0.83454466     1.31358866     2.42340832
O       0.32115549     2.75504899     3.60729186    -2.30882064     0.72942584     0.07497417
O       8.51776570     1.77436954     9.74686864     2.30882064    -0.72942584    -0.07497417
O       4.74061226     1.77432726     3.06983083    -2.31093563    -0.72951685    -0.07499551
O       4.09830894     2.75509127    10.28432947     2.31093563     0.72951685     0.07499551
O       0.32114076     0.49033979     3.06978819    -2.30882064     0.72942584    -0.07497417
O       8.51778050     4.03907867    10.28437211     2.30882064    -0.72942584     0.07497417
O       4.09829421     0.49038207     9.74691121     2.31093563     0.72951685    -0.07499551
O       4.74062705     4.03903639     3.60724922    -2.31093563    -0.72951685     0.07499551
