# total energy = -4986.89371737 eV

CRYSTAL
PRIMVEC
        3.66772191     0.00000000     0.00000000
        0.00000000     4.24761321     0.00000000
        0.00000000    -0.00006702     5.11221659
PRIMCOORD
6 1
Ti      1.83386101     2.12377292     2.55610829     0.00000000     0.00000000     0.00000000
Ti      0.00000000     0.00000000     0.00000000     0.00000000     0.00000000     0.00000000
O       1.83386101     0.82778412     0.99629570     0.00000000     0.36657851     0.48812232
O       1.83386101     3.41976167     4.11592083     0.00000000    -0.36657851    -0.48812232
O       0.00000000     1.29596172     3.55240513     0.00000000    -0.36673355     0.48832775
O       0.00000000     2.95158413     1.55981146     0.00000000     0.36673355    -0.48832775
