# total energy = -19958.27363246 eV

CRYSTAL
PRIMVEC
        5.17556192     0.00000000     0.00000000
        1.09079193     5.39928099     0.00000000
        0.00000000     0.00000000     9.31024394
PRIMCOORD
24 1
Ti      2.52229447     3.19960892     3.45403422     1.06145848    -1.36350742     0.75673585
Ti      3.74405913     2.19967220     5.85621009    -1.06145848     1.36350742    -0.75673585
Ti      4.90797766     2.19967414     1.20105074    -1.81042445    -0.47623430     0.84825764
Ti      1.35837596     3.19960719     8.10919367     1.81042445     0.47623430    -0.84825764
Ti      1.97689863     0.49996862     1.20108807     1.06145848    -1.36350742    -0.75673585
Ti      4.28945498     4.89931266     8.10915634    -1.06145848     1.36350742     0.75673585
Ti      0.81298003     0.49996653     5.85617276     1.81042445     0.47623430     0.84825764
Ti      5.45337358     4.89931474     3.45407155    -1.81042445    -0.47623430    -0.84825764
O       2.02218431     1.90117865     4.75094636     0.20527567     0.63121737    -0.60203148
O       4.24416928     3.49810247     4.55929795    -0.20527567    -0.63121737     0.60203148
O       1.33380394     1.90120039     0.09585419     0.33055374    -0.51424885     0.37317082
O       4.93254972     3.49808078     9.21438985    -0.33055374     0.51424885    -0.37317082
O       3.69877343     0.79846202     0.09582397    -0.20527567    -0.63121737    -0.60203148
O       2.56758017     4.60081910     9.21442007     0.20527567     0.63121737     0.60203148
O       4.38715386     0.79844032     4.75097658    -0.33055374     0.51424885     0.37317082
O       1.87919969     4.60084085     4.55926772     0.33055374    -0.51424885    -0.37317082
O       0.85152157     3.28414870     2.51492925    -0.18565891     0.02364593    -0.19532935
O       5.41483203     2.11513242     6.79531506     0.18565891    -0.02364593     0.19532935
O       3.20313151     2.11508199     2.14022252     0.82798706    -0.23651484    -0.61693000
O       3.06322208     3.28419913     7.17002163    -0.82798706     0.23651484     0.61693000
O       0.30612571     0.58450825     2.14019277    -0.18565891     0.02364593     0.19532935
O       5.96022789     4.81477292     7.17005138     0.18565891    -0.02364593    -0.19532935
O       2.51782622     0.58455863     6.79534475    -0.82798706     0.23651484    -0.61693000
O       3.74852737     4.81472249     2.51489950     0.82798706    -0.23651484     0.61693000
