# total energy = -4989.28533745 eV

CRYSTAL
PRIMVEC
        3.76878057     0.00000000     0.00000000
        1.10574680     3.60291979     0.00000000
       -2.43729770    -1.80148504     4.86607675
PRIMCOORD
6 1
Ti      0.82919477     2.70232797     1.21651890     0.00091788    -0.00091788     0.00000000
Ti      1.60803467    -0.90089339     3.64955712    -0.00091788     0.00091788    -0.00000000
O       0.27647612     0.90072495     0.79264400    -0.00018178    -0.00004885    -0.79229705
O       2.16075315     0.90070955     4.07343202     0.00018178     0.00004885     0.79229705
O      -0.27644709    -0.90070350     3.22568222    -0.00004885    -0.00018178    -0.79229705
O       2.71367635     2.70213790     1.64039385     0.00004885     0.00018178     0.79229705
