# total energy = -39036.57852097 eV

CRYSTAL
PRIMVEC
        7.60600008     0.00000000     0.00000000
        0.00000000     7.60600008     0.00000000
       -3.79573973    -3.79573973     9.71340985
PRIMCOORD
46 1
Ti      2.00787745     4.61266447     6.02469061     0.29234611     1.11150374     0.90648492
Ti      3.90155100     6.74237001     1.24471797    -0.22274452     1.60459677    -0.81866500
Ti      1.88904647     0.70279247     6.07226762     0.74365227    -0.70426193     0.02505695
Ti      3.80166202     2.93183300     1.33932598     0.20272796    -1.73751488    -1.61778396
Ti     -1.81023356     4.74551246     5.99846363    -0.75139926    -0.09487940     1.00267533
Ti      0.01123401     6.74470198     1.16105299     0.22260517    -0.51806077    -0.31346310
Ti     -1.87453458     0.90887045     6.06323361    -0.63681749    -0.34342238     0.22222413
Ti     -0.08827899     2.98180299     1.24214199    -0.25263283     0.36646204    -0.80995025
Ti      3.80299745     1.01476543     8.47034064    -0.53308604    -0.76416762     0.16416705
Ti      5.54779999     2.80114998     3.75772702     0.62012357    -0.06732308    -1.38920226
Ti      3.77708046    -2.83273255     8.51266661     1.24300260     0.80257606    -0.58182055
Ti      5.72393600    -0.99830299     3.57572201     0.43700697     0.01930102     0.46897376
Ti     -0.04178653     1.15221843     8.39224360     0.58248081    -1.11440677     2.30240317
Ti      1.74469300     2.73606001     3.53749202    -0.23116514     0.07445609     1.15537680
Ti      0.04940648    -2.83825753     8.49439264    -1.38510264     1.04135013     0.94110535
Ti      1.84844101    -1.07412001     3.50158698     0.07482144     0.12149624     0.62217069
O       2.03912045    -1.13124253     5.87658565    -0.53213705     1.16491817    -1.37183985
O       3.78534002     0.98373500     0.96489598     0.06664533     0.65880609    -1.09640827
O      -2.00312756     2.76858743     5.61799064     0.35273337     0.38245662     0.81072286
O      -0.23160300     4.86326000     0.85253302     0.92327655    -1.77738422    -0.97389284
O      -1.76228254    -1.01856053     5.68067862    -0.09749730     0.66845082    -0.62671563
O      -0.00007800     0.97539099     0.75004700    -0.12913602     0.79629100     0.69244539
O       3.86935146     2.90257743     8.89678564    -0.43130889    -0.23724760     0.33159221
O       5.43079498     4.68936400     4.00853402     0.76904012     1.13317352     0.86717840
O       3.96869846    -0.88738955     8.85056962    -0.45369163     0.30149127     0.93478404
O       5.91270501     0.94190899     4.01556700    -0.45230118    -1.24765167     0.47702337
O       0.13046347     2.99280745     8.94802365     0.09265256    -1.77736905     0.01185150
O       1.88488301     4.68695598     4.14489601     0.12429154    -0.78287678    -0.84537800
O      -0.06827355    -0.66652457     9.11823060     0.26647000     0.24220803    -0.12006542
O       1.67002101     0.84313002     4.09323900     0.09301766     0.29569574    -0.00582844
O       1.97073942     1.05024242     7.97541962    -0.92040822     0.36743752     1.18989927
O       3.72374702     2.78075898     3.29745500     0.45169980    -0.07858991     0.41471447
O       1.90802245    -2.82435456     8.00041462     0.90908302    -0.14382731     1.11888769
O       3.90959100    -0.85790200     3.09125399    -1.46011511    -0.41376599     1.78054488
O      -1.90162454     1.18514643     8.08629961    -0.06901795    -0.16083465    -0.56829988
O      -0.13960199     3.06850599     3.22088797     1.04816047    -0.56815410    -0.02935892
O      -1.85728753    -2.99262456     8.23162163     0.67584968     0.81851974    -1.18446087
O      -0.02611601     6.33564802     3.18931901     0.59835018     0.74657124     0.13634437
O       3.92002944     4.75339344     6.48990965    -0.43447237    -0.69025507     0.08330814
O       5.77068601     6.67141998     1.54742599    -0.74333242     0.02892646     0.50530449
O       3.73930943     0.81868346     6.50978962     2.07502655     0.48999099    -1.01772348
O       5.68901999     2.82503101     1.56241202    -0.43067691     0.31477154     0.31674152
O       0.07101146     4.69639343     6.51957961    -0.84007664    -0.60473346    -0.53036041
O       1.90590902     6.57398702     1.59455002     0.34690185    -0.26288100     0.43760243
O       0.02658343     0.98090544     6.60936961    -0.58527354    -0.07016286    -2.91152318
O       1.93452999     2.84485298     1.70621599    -1.61957293     0.60831963    -1.10684310
