# total energy = -4989.76624500 eV

CRYSTAL
PRIMVEC
        3.83274406     0.00000000     0.00000000
        0.94343617     3.71481564     0.00000000
       -2.38812501    -1.85743496     4.93070534
PRIMCOORD
6 1
Ti      0.70745267     2.78625399     1.23267625     0.00040726    -0.00040726     0.00000000
Ti      1.68060272    -0.92887317     3.69802876    -0.00040726     0.00040726     0.00000000
O       0.23589923     0.92869862     0.80317155    -0.00031830    -0.00027999    -0.67399772
O       2.15215599     0.92868211     4.12753347     0.00031830     0.00027999     0.67399772
O      -0.23587184    -0.92867732     3.26852406    -0.00027999    -0.00031830    -0.67399772
O       2.62392706     2.78605799     1.66218096     0.00027999     0.00031830     0.67399772
