# total energy = -19072.11598260 eV

CRYSTAL
PRIMVEC
        5.93400000     0.00000000     0.00000000
        0.00000000     9.29699974     0.00000000
        0.00000000     0.00000000     4.64899994
PRIMCOORD
22 1
Ti      4.34969401     7.00186699     2.27962802     1.84138312    -1.33114699     0.84978668
Ti      4.46360799     2.53125799     2.03264798     0.34231603    -0.56592033    -0.78566951
Ti      1.53976101     7.15799100     2.43040803    -2.17158462    -1.53405647     2.00031514
Ti      1.60960299     2.22480700     2.20883400    -1.18568446     0.33354599     1.07873810
Ti      2.99617899     4.37670602     4.39153801    -0.97216583     0.60078450    -0.81856139
Ti      3.02317301     0.21081099     0.21245599     0.23884169    -0.14675862    -1.37061189
Ti      5.84032901     4.70896102     4.54487300    -0.42001814     0.50851863    -1.10799521
Ti      0.04467801     9.06597398     0.14684499    -1.21358017    -0.38056069    -0.51662403
O       4.64130502     5.34854999     1.06057498    -1.77897882     1.07859335     0.57540667
O       4.46511799     0.81279303     1.18398599     0.30957688     0.05176558    -0.48971769
O       1.48287901     0.57593599     1.38635100    -0.78611431     1.90100471    -1.21343567
O       4.32616002     8.43052402     3.96351400     0.14592276     0.64610252     0.02677856
O       4.46747299     3.69290900     3.41493701     1.00112829     1.69644663     1.83710608
O       1.49196599     8.18569699     4.02842701     0.67090828     1.21229693     0.16888529
O       1.34685998     3.94477800     3.61443000     1.81433124    -0.57032077    -0.72976857
O       3.10537699     5.94255198     3.06573998    -1.92583797    -0.20700473     1.00739382
O       2.95866398     1.71737899     3.33765898    -0.27885501    -1.50364391     1.04522453
O       5.73698202     6.38346998     3.51849102     0.78619607    -1.67620613    -0.61064545
O       2.84442398     8.07526299     1.74981798     2.02145373     0.09072038    -1.65519173
O       2.82151902     2.95630300     1.07075402     0.75098840     1.38776527    -0.68588367
O       5.90548899     8.04649098     1.63788699     0.19155728    -1.52855354     0.36454862
O       5.92402898     3.02224499     1.04131700     0.61821479    -0.06337283     1.02992157
