# total energy = -39040.44502933 eV

CRYSTAL
PRIMVEC
        7.60629642    -0.00000847    -0.00005503
       -0.00000847     7.60629642    -0.00005503
       -3.80314186    -3.80314186     9.70738094
PRIMCOORD
46 1
Ti      1.88455949     4.81828788     6.13544379     0.00247674     0.01448457     0.00662574
Ti      3.78613407     6.71988723     1.28174938     0.00246543     0.01467175     0.00694635
Ti      1.92459451     0.89335850     6.05687816    -0.00227388    -0.01559812     0.00340928
Ti      3.82615695     2.79491403     1.20321380    -0.00233868    -0.01548936     0.00344965
Ti     -1.88254480     4.73394673     6.08823628    -0.00348205     0.00735541    -0.01630748
Ti      0.01902826     6.63553349     1.23453325    -0.00344091     0.00728677    -0.01603700
Ti     -1.92773044     0.96628346     6.01940346    -0.00041241     0.00070654    -0.02071616
Ti     -0.02614326     2.86786384     1.16574091    -0.00043606     0.00077956    -0.02068916
Ti      3.80684237     0.96815329     8.47921633    -0.00151772     0.00858672     0.01575727
Ti      5.70842053     2.86972524     3.62552758    -0.00165193     0.00847976     0.01580612
Ti      3.81073267    -2.86753581     8.50779576     0.00825016    -0.00060112     0.02005513
Ti      5.71229446    -0.96598780     3.65411011     0.00831469    -0.00052013     0.01995794
Ti     -0.00282754     0.96066204     8.35135978    -0.01289332    -0.00729859     0.01977796
Ti      1.89874387     2.86221367     3.49771996    -0.01279639    -0.00727057     0.01976151
Ti      0.00033259    -2.86934253     8.58306235    -0.00198386     0.00500851     0.01750845
Ti      1.90189723    -0.96776590     3.72938012    -0.00202577     0.00485707     0.01751308
O       1.89370578    -0.95212612     5.69508144    -0.00468969     0.00005348    -0.01446375
O       3.79528279     0.94946860     0.84139416    -0.00470949    -0.00012496    -0.01474991
O      -1.89948401     2.85839189     5.60952276    -0.00841779     0.00308404     0.00296011
O       0.00209394     4.75997312     0.75583204    -0.00847205     0.00301899     0.00264361
O      -1.89686163    -0.95419875     5.67477336     0.00121253     0.00028025    -0.01572642
O       0.00471219     0.94738759     0.82109287     0.00121690     0.00030750    -0.01601129
O       3.84001167     2.85366186     8.93580852     0.00495349     0.00779379    -0.00625652
O       5.74158528     4.75521717     4.08210832     0.00496172     0.00781461    -0.00621693
O       3.77697528    -0.95085617     8.87663647    -0.00983550    -0.00222580    -0.01551918
O       5.67854555     0.95070184     4.02292814    -0.00983473    -0.00222401    -0.01552973
O      -0.03234388     2.73859975     9.01997387    -0.00995814    -0.00892122    -0.00744103
O       1.86922911     4.64014014     4.16629756    -0.00995917    -0.00862348    -0.00733330
O       0.02299123    -0.86017138     8.92453435     0.00626578    -0.00442281    -0.03150502
O       1.92457337     1.04134983     4.07082650     0.00625987    -0.00442667    -0.03174028
O       1.91493833     1.00796196     8.04183383     0.01292237     0.01626866    -0.00095722
O       3.81650843     2.90950900     3.18817057     0.01284421     0.01622650    -0.00123490
O       1.88081472    -2.89776886     8.14514466     0.00342651    -0.02177519     0.00154780
O       3.78238679    -0.99622988     3.29143990     0.00352601    -0.02175745     0.00146990
O      -1.91760131     0.92522992     8.00569474    -0.00827381    -0.00336352    -0.00875821
O      -0.01602633     2.82677025     3.15202452    -0.00824399    -0.00336249    -0.00897084
O      -1.88263420    -2.83226488     8.10058580    -0.00724537    -0.01163399    -0.01503427
O       0.01893807    -0.93071970     3.24689231    -0.00736107    -0.01160365    -0.01522505
O       3.78047057     4.63671577     6.50609953     0.00873224     0.01603623     0.01941029
O       5.68202875     6.53829137     1.65239087     0.00890399     0.01601232     0.01916604
O       3.78206007     1.08695534     6.42010540    -0.00074511    -0.00459122     0.02312734
O       5.68362279     2.98855850     1.56643744    -0.00067029    -0.00460485     0.02275864
O       0.01819366     4.62226444     6.50768854     0.01699063     0.00416262     0.01682068
O       1.91977552     6.52383814     1.65399529     0.01683893     0.00418087     0.01634219
O       0.02207106     1.08038151     6.40233383     0.00649512    -0.00348359     0.00699932
O       1.92364075     2.98198252     1.54866415     0.00661185    -0.00353321     0.00660851
