# total energy = -19903.28563017 eV

CRYSTAL
PRIMVEC
        8.30967052     0.00000000     0.00000000
        0.00002924     4.76215516     0.00000000
        0.00000000     0.00000000    12.57183695
PRIMCOORD
24 1
Ti      3.01187333     2.82204889     4.66406201     0.44195197    -0.48393682     2.56686436
Ti      5.29782663     1.94010667     7.90777546    -0.44195197     0.48393682    -2.56686436
Ti      7.16656618     1.94010835     1.62180653     0.44110634     0.48388179    -2.56736162
Ti      1.14313378     2.82204734    10.95003107    -0.44110634    -0.48388179     2.56736162
Ti      3.01185884     0.44097137     1.62185692     0.44224842    -0.48384117    -2.56703766
Ti      5.29784112     4.32118431    10.94998069    -0.44224842     0.48384117     2.56703766
Ti      1.14311929     0.44096949     7.90772508    -0.44182316    -0.48377304    -2.56758710
Ti      7.16658066     4.32118613     4.66411240     0.44182316     0.48377304     2.56758710
O       2.63007356     1.67683587     6.41531237     0.83261016     1.39305943    -2.16072684
O       5.67962639     3.08531963     6.15652510    -0.83261016    -1.39305943     2.16072684
O       1.52483101     1.67685505     0.12943409    -0.83333830     1.39393592    -2.16284723
O       6.78486901     3.08530050    12.44240300     0.83333830    -1.39393592     2.16284723
O       5.67961190     0.70424204     0.12939331    -0.83277137    -1.39319262    -2.16052064
O       2.63008805     4.05791351    12.44244378     0.83277137     1.39319262     2.16052064
O       6.78485452     0.70422286     6.41535315     0.83331078    -1.39415395    -2.16278630
O       1.52484530     4.05793270     6.15648426    -0.83331078     1.39415395     2.16278630
O       0.30192732     2.89661276     3.39596692    -2.31115418     0.75676619     0.21309748
O       8.00777263     1.86554280     9.17587056     2.31115418    -0.75676619    -0.21309748
O       4.45677283     1.86549827     2.88999175    -2.30989485    -0.75701995    -0.21467434
O       3.85292712     2.89665729     9.68184546     2.30989485     0.75701995     0.21467434
O       0.30191283     0.51553511     2.88995163    -2.31075540     0.75671914    -0.21436041
O       8.00778712     4.24662045     9.68188559     2.31075540    -0.75671914     0.21436041
O       3.85291263     0.51557964     9.17591062     2.30986914     0.75658390    -0.21310879
O       4.45678732     4.24657592     3.39592679    -2.30986914    -0.75658390     0.21310879
