# total energy = -19960.61306788 eV

CRYSTAL
PRIMVEC
        5.93400000     0.00000000     0.00000000
        0.00000000     9.29699974     0.00000000
        0.00000000     0.00000000     4.64899994
PRIMCOORD
24 1
Ti      4.44678999     6.93796799     2.30396102     0.94104647     1.20585040     0.07525159
Ti      4.41612502     2.25747301     2.36746297    -0.69689803     0.21049527    -0.78705894
Ti      1.54099701     6.91031901     2.34614798    -0.98902431     1.05736245    -0.43203368
Ti      1.38728399     2.33971900     2.27899602     0.63378539     0.17649833    -0.58895331
Ti      3.00964200     4.65112401     0.00882699    -1.02931145    -0.77959039     0.61798056
Ti      2.98598498     0.07513200     4.62586500    -0.95912956    -0.52091701     0.06374384
Ti      5.93218302     4.59502699     4.58031999     1.25069868    -0.02352535     0.29221241
Ti      5.92826102     9.28249097     0.03007701     0.80842250    -0.66962401     0.04174830
O       4.47879299     5.47236598     0.91383498    -0.12032562     0.86605020     0.76710485
O       4.44032599     0.92749399     0.89894398    -0.04159455     0.12624507     0.37953148
O       1.48254701     5.44719498     0.93542901     0.28202930     0.80140827     0.48880752
O       1.56220400     0.99531499     0.92878497    -0.56706010    -0.89980648    -0.55448097
O       4.39331499     8.34949798     3.76530997     0.54153058     0.85434190     0.40015559
O       4.51893701     3.86849700     3.64390100    -0.83153801    -0.98372552    -0.70489288
O       1.43428599     8.48196200     3.78003100     0.47051154    -0.54393379     0.12118385
O       1.50887802     3.74649598     3.65046899    -0.15794113     0.96458905     0.49987895
O       2.95790000     6.18165998     3.33775799     0.30931077    -0.55059423    -0.33395891
O       2.88095202     1.48926200     3.17809098     1.56341899    -0.63831979     0.78499588
O       0.01250102     6.22362501     3.33694602    -0.13989146    -1.05853616    -0.23181023
O       0.12775302     1.38432599     3.31430898    -1.74168752     0.85653917    -0.78554404
O       2.92617101     8.01197799     1.46386001     0.31666695    -1.54205903     0.36998831
O       2.95910701     3.22079002     1.38646900     0.93095258     0.36746554    -0.27714754
O       0.03625102     7.93498402     1.55494798    -0.58506914    -0.12253599    -0.93494833
O       5.87299999     3.05778200     1.23905202    -0.18890262     0.84632314     0.72824596
