# total energy = -19077.18112221 eV

CRYSTAL
PRIMVEC
        5.17575250     0.00001323     0.00000000
        0.00001429     5.50856584     0.00000000
        0.00000000     0.00000000     9.26345890
PRIMCOORD
22 1
Ti      1.93326005     3.42825501     3.30098070    -0.04220236    -0.02594270    -0.01259430
Ti      3.39346509     2.24508558     5.93021869     0.00542863     0.12166670    -0.08395889
Ti      4.48512325     2.25975346     1.14614180    -0.00776293    -0.08576252    -0.06856826
Ti      0.75934969     3.26794468     8.10362172    -0.02931907     0.08600163    -0.02140496
Ti      1.83349434     0.62101752     1.23163676    -0.08265714    -0.07755864    -0.01160134
Ti      3.20282081     4.98863706     8.12914754     0.03738025    -0.04740756     0.09515142
Ti      0.74910806     0.55563708     5.79491870     0.11402692     0.08938675     0.07457128
Ti      4.48962792     4.95977478     3.49406803    -0.17106867    -0.09193626    -0.12096325
O       3.44354121     3.48840493     4.54036631     0.01070762    -0.00224457    -0.06163682
O       0.94475483     1.91429255     0.12395345    -0.03647934     0.13103606    -0.00782361
O       4.17704672     3.61181393     9.11863228    -0.10907961     0.03165106     0.06254262
O       3.55812096     0.83156034     0.07028748    -0.01759098     0.01204562     0.00260504
O       1.59035482     4.69669859     9.13807006    -0.01253336     0.13017834    -0.00109041
O       4.24195533     0.82012422     4.72548917     0.11217984    -0.01080712     0.06913288
O       0.93447263     4.62462986     4.57208020     0.01318796    -0.07214775     0.09765902
O       0.16424087     3.31706466     2.51523031     0.06680526    -0.12744269    -0.08055321
O       5.09841507     2.07718114     6.77045952    -0.06015921    -0.10787530     0.00250734
O       2.73903680     2.08992472     2.16574010     0.03360562     0.12166876     0.02293605
O       2.36863730     3.38147540     7.07383333    -0.02650757     0.03422191    -0.01808026
O       0.19155004     0.53333689     2.18535184     0.04717025     0.03715785    -0.02217937
O       2.41123496     0.65316489     6.69211314     0.09357636    -0.05172316     0.06868653
O       2.77370931     4.88526928     2.47807501     0.06129152    -0.09416643     0.01466275
