# total energy = -19074.76161889 eV

CRYSTAL
PRIMVEC
        7.60600008     0.00000000     0.00000000
        0.00000000     7.60600008     0.00000000
       -1.89786986    -1.89786986     4.85670466
PRIMCOORD
22 1
Ti      3.62900201     6.64541198     1.43769601     0.67487755     0.92517479    -2.54581705
Ti      3.85658300     2.96344203     1.22080398     0.71134069    -0.64278271     0.66831172
Ti      0.05110302     6.51373897     0.92041302    -0.26339985     0.57368918     1.77099400
Ti      0.16498201     2.72715999     1.03066101    -0.68071858    -0.05955628     1.15678422
Ti      5.83374721     2.79916720     3.51543682     0.04775440     0.66237118    -1.18274826
Ti      5.95903125    -0.93580075     3.53298079    -0.35209780    -0.77941787    -0.05260222
Ti      1.93580124     2.95664924     3.72532582     0.01211324    -0.53417516    -0.83596596
Ti      1.30088321    -0.89440877     3.97659881     2.00659121    -0.23056248    -1.05629673
O       3.42469302     4.86149102     0.94638298     0.66797722    -1.80743143    -0.52407689
O       4.06423400     0.97259201     0.89585999    -1.63451773     0.22216628    -0.07353666
O       0.26611001     4.63102099     0.72603801    -0.12341068     0.91643587    -0.63180230
O       7.27797798     0.89305800     0.55661001     1.10031866     0.07148466     0.51993150
O       5.72660221     4.69536423     3.93914280     0.30900892     0.68476679    -0.59052374
O       5.77491720     0.92682824     3.83203483     0.28787933    -0.48146599     0.23316880
O       1.81602022     4.74781120     4.27944483    -0.59270403     1.94381745    -0.32948751
O       2.04946020     1.02771524     4.09815082    -1.14006305    -0.65189059     0.70939565
O       3.85659723     3.03813222     3.26144581     0.35891919    -0.30628252    -0.27641478
O       0.08181721     3.04812023     3.13627581     0.55226365    -0.90317797    -0.10917345
O       5.46998702     6.47285897     1.63126402     2.21960847    -0.17072466     1.62234690
O       5.90325401     2.98394299     1.48501900    -1.48979877    -0.16024869     0.81627593
O       1.81827399     6.67642298     1.96416900    -1.62563097     0.39717954     1.11772889
O       2.03819799     2.55879399     1.68829900    -1.04631082     0.33063036    -0.40649233
