# total energy = -4985.29387259 eV

CRYSTAL
PRIMVEC
        3.38216645     0.00000000     0.00000000
        0.00000000     5.29934777     0.00000000
        0.00000000    -0.00006877     5.29934777
PRIMCOORD
6 1
Ti      1.69108316     2.64963944     2.64967382     0.00000000     0.00000000     0.00000000
Ti      0.00000000     0.00000000     0.00000000     0.00000000     0.00000000     0.00000000
O       1.69108316     1.03275141     1.03276481     0.00000000    -0.84783469    -0.84783469
O       1.69108316     4.26652746     4.26658283     0.00000000     0.84783469     0.84783469
O       0.00000000     1.61686015     3.68243971     0.00000000     0.84705282    -0.84705282
O       0.00000000     3.68241873     1.61690793     0.00000000    -0.84705282     0.84705282
