# total energy = -39031.77829518 eV

CRYSTAL
PRIMVEC
        5.93200024     0.00000000     0.00000000
        0.00000000     9.29399984     0.00000000
        0.00000000     0.00000000     9.29399984
PRIMCOORD
46 1
Ti      4.42019402     7.17531801     6.95089500     0.55653477     0.07490835    -0.84758401
Ti      4.44369198     6.69526799     2.37766001    -0.11127687     1.40015208     0.55195769
Ti      4.42548003     2.16916798     7.02786701     0.52949010     0.26166795    -0.04707177
Ti      4.26925298     2.75836600     2.04908999    -0.26745859    -1.88851248     1.91108163
Ti      1.45231902     6.82934600     6.97173098    -0.48736590     1.59151396     1.35406478
Ti      1.53163402     7.04679800     2.17799201    -0.23251394     0.00676586    -0.32595198
Ti      1.51365099     2.48297200     6.81216198    -1.76740011    -1.41814724     1.25426918
Ti      1.26979801     1.86668698     2.85704898     1.23777477     0.70101514    -0.94170313
Ti      2.98255300     4.64852199     4.86769001     0.87710903     0.31072899    -2.03824176
Ti      2.98896800     4.90324898     8.93848999    -0.59428269    -3.36758640     2.20512853
Ti      2.98378497     9.19887700     4.58316400     1.22543553     0.24532293     0.75678598
Ti      2.96813699     0.02122001     9.28767400    -1.52988845     0.04580396     0.73464929
Ti      0.04008502     4.64523300     4.64058402    -0.74038028    -0.48486216    -0.57597694
Ti      5.91663198     4.74941397     0.12875200     1.57427677    -0.85754010    -2.13726012
Ti      0.04202800     9.03729299     4.78442900    -0.63327220     1.35587047    -0.93618735
Ti      5.92453101     0.12874300     9.26699598     0.43587131     0.04374759     1.04693868
O       4.60757198     5.68069301     5.57376899    -0.21961831    -0.27244653    -0.44576775
O       4.51046901     5.79499001     0.61592401    -1.26756178    -0.50659750     1.46501358
O       4.35158402     0.90770202     5.53878403     1.05976721    -0.49763643    -0.44283900
O       4.43559398     1.00517102     0.77108402     0.75354974     1.02096230     1.25306307
O       1.49543099     5.60985999     5.54686599    -0.29941510     0.00175504    -0.28416511
O       1.54791098     5.78422702     0.62349500     0.09915154    -1.04156816     0.67398332
O       1.42134797     0.81101901     5.77141299    -0.05431637     0.77027657    -2.10832954
O       1.51253903     0.72208501     1.16839903    -1.12390160     0.77981176    -0.57717045
O       4.38279701     8.57563199     8.34483302     1.74230022    -1.83155121    -0.96185648
O       4.48096299     8.05446801     3.99476001    -0.14722374     1.09574030    -0.95843022
O       4.51904798     3.85574399     8.23879199    -0.34088007    -0.53960996     1.43306504
O       4.35173701     3.95570102     3.69280698     0.77234322    -1.05143812    -0.76695881
O       1.64848900     8.30806700     8.35773902    -1.14871635     0.61270568     0.57967342
O       1.52330900     8.21276297     3.77842500    -0.78327478     1.35028012     0.15815350
O       1.49519201     3.70598698     8.40248699     0.64675687     0.89574928     0.35006354
O       1.70120601     3.71449001     3.86759401    -1.67424386    -0.79514069    -0.23758750
O       3.14380500     5.93436598     7.60110001    -0.86037963     2.03622293    -1.86723145
O       2.81610199     5.90671499     3.11199600     1.16641635     1.04951853    -0.36853306
O       2.94207702     1.50789899     7.93802801    -0.19244689     0.09415306    -0.24310586
O       3.08269101     1.56740502     3.12294801    -0.03926590    -0.40356282     0.16164274
O       0.06025598     5.93120399     7.89596800    -0.09664369     1.54878838    -1.02482950
O       0.05166199     5.87913300     3.05266999    -0.10207258    -0.23054114     0.05833578
O       0.01488099     1.62221302     7.94114899     0.29516584    -1.61558258     0.59879138
O       2.83761500     8.10151600     6.05766899     1.13608298    -2.23142372     1.17552628
O       3.00836499     7.88534900     1.40017199     0.60251717    -0.26827363     0.64866694
O       2.99772700     3.14953202     6.01548399     0.84230476     0.92052264     0.05576828
O       0.09506399     7.94728300     6.18996097    -0.32626668    -1.05016310     1.03654268
O       5.87538801     7.86808702     1.51721902    -0.34041213     0.42144844    -0.51417274
O       5.88780002     3.13976701     5.88292302     0.37070873     0.52580210     0.15016688
O       0.12320199     2.92293298     1.83287298    -0.54307761     1.19094931    -0.96237713
