# total energy = -19962.03682309 eV

CRYSTAL
PRIMVEC
        7.60600008     0.00000000     0.00000000
        0.00000000     7.60600008     0.00000000
       -1.89786986    -1.89786986     4.85670466
PRIMCOORD
24 1
Ti      3.80350101     6.55447499     1.21508802    -0.78255976     0.83169639     0.32657547
Ti      3.80988199     2.85908102     1.22348902    -0.51489034    -0.52995778    -0.35404155
Ti     -0.00531400     6.70033799     1.20744903     0.75938331     0.27977624     0.08609496
Ti     -0.01993400     2.90947600     1.20962998     0.43839459    -0.56885113     0.12405037
Ti      5.70599520     2.86690824     3.65562381     0.50852171    -0.15096881    -0.28696402
Ti      5.73930125    -0.95805779     3.61885779    -0.39273024     0.25902177     0.14473645
Ti      1.91322622     2.84573925     3.64032482    -0.51108870    -0.33768830    -0.49588808
Ti      1.90545525    -1.00949377     3.68489879     0.22706012     0.39241579    -0.37310295
O       3.65564302     4.71414002     0.73952500     0.52451527     0.23146365     0.73479379
O       3.70412899     0.86262702     0.75372600     0.43945697     0.94634706     0.67314257
O       0.03384501     4.79617202     0.76346302    -0.18472072     0.04030591    -0.16117043
O      -0.02312700     0.99504199     0.78780898     0.06405109    -0.58726615    -0.30401635
O       5.79382820     4.78645622     3.95702084     0.01412359    -0.27320398     0.83643648
O       5.72455424     0.95194420     4.02313683    -0.22825568     0.30040472     0.18178580
O       1.81967922     4.70871522     4.07129682     0.16768690    -0.11239556    -0.22853028
O       1.81578521     0.92433523     4.14944281     0.67493617    -0.17169293    -0.63681390
O       3.82745523     2.98969721     3.24497379    -0.11589920    -0.69629819     0.07084575
O       3.80407925    -1.02987878     3.21914481     0.07187727     0.06090251     0.21294578
O       0.01592024     2.68297724     3.17469281    -0.66489061     0.59668282     0.01547702
O       0.03185023    -0.98830477     3.16209882    -0.57328166     0.20944523    -0.05759273
O       5.68075202     6.64811602     1.60436498     0.59508668    -0.00605958    -0.04375145
O       5.70085102     2.94356200     1.59250401    -0.23949912    -0.11081202     0.12958133
O       1.92513001     6.69045200     1.64367799    -0.64754260    -0.14755541    -0.09846789
O       1.88584601     2.97042600     1.69640499     0.37026496    -0.45571252    -0.49612591
