# total energy = -19960.44795307 eV

CRYSTAL
PRIMVEC
        5.93400000     0.00000000     0.00000000
        0.00000000     9.29699974     0.00000000
        0.00000000     0.00000000     4.64899994
PRIMCOORD
24 1
Ti      4.43750500     6.81344798     2.26759998    -2.10729236     1.84101699     1.51575201
Ti      4.48611099     2.44517202     2.42506699     1.21074064    -1.24441593    -1.42986402
Ti      1.41066701     7.01864800     2.19940099     2.04949445     0.46465148     0.53311998
Ti      1.51717901     2.26071898     2.37100201    -1.15359682    -0.08655339    -0.57087279
Ti      2.99760301     4.61029100     0.01591998    -2.13589358    -0.27336570    -0.26286223
Ti      2.94019400     9.28156899     4.56065401     1.75967625     0.12828370     1.22029126
Ti      5.92208902     4.74274100     4.64478002     1.96664731    -1.23846974     0.13466389
Ti      0.01717302     9.18809099     0.05323401    -1.54868425     2.02523531    -0.91090671
O       4.44604798     5.63564601     0.85754697     0.05568909    -0.18762272    -0.10685483
O       4.43968902     0.89051202     0.84790298     0.10278220     0.68405819     0.62003204
O       1.44943898     5.61377903     0.78677100     0.29250937     0.74127400     0.95518498
O       1.45772600     0.91599100     0.86519200     0.59908886     0.37738409     0.54211910
O       4.50926498     8.36429198     3.78123699    -0.53068926    -0.42771320    -0.48709799
O       4.47545198     3.82052697     3.84054898    -0.24802310    -1.40510377    -0.93065099
O       1.53328902     8.43286398     3.69291599    -0.86766999    -1.20620161    -0.30438427
O       1.42776298     3.63991201     3.85258501     0.57550849     0.92743556     0.04688614
O       3.00328902     5.98665102     3.21874899    -0.16392331     0.28906229    -0.41754782
O       2.91803401     1.37841101     3.28388700     0.91031947     1.17991310    -1.18456140
O       5.88569803     6.09389202     3.20338200     0.72836114    -0.41298206    -0.05442025
O       0.02497399     1.40735399     3.16630302    -0.54637402     0.47837783     0.09018739
O       2.93129202     7.90475901     1.49150899    -0.08014620    -0.60435936    -0.22231180
O       2.99905698     3.43794299     1.60093999     0.20477636    -0.75943294    -0.43918829
O       0.00548799     7.96874098     1.42728598    -0.01844921    -1.55270983     0.97674291
O       0.04077999     3.25879903     1.42334900    -1.05485126     0.26223796     0.68654342
