# total energy = -19517.79223610 eV

CRYSTAL
PRIMVEC
        5.93400000     0.00000000     0.00000000
        0.00000000     9.29699974     0.00000000
        0.00000000     0.00000000     4.64899994
PRIMCOORD
23 1
Ti      4.48609601     7.06349799     2.16025399     1.99396683     0.41631421     0.35749943
Ti      4.51033000     2.25026402     2.36256200    -0.00873841     0.57365678    -0.14270528
Ti      1.51376201     7.06864800     2.30294298    -2.07348877     0.18546582    -0.33191951
Ti      1.47796698     2.25500498     2.30118500    -0.02484124     0.72910959     0.11962113
Ti      2.95820402     4.50023102     0.26536202    -0.19608628    -0.89335481    -0.85555675
Ti      2.95030298     9.22706299     4.44078500     1.06395271     0.16629361     1.01235399
Ti      5.91756201     4.74724101     0.09626401     0.42496520    -0.79010389    -1.75759417
Ti      5.89965598     0.12702900     4.63004302    -0.27971942    -1.15265554     1.59085036
O       4.36228901     5.56072297     0.98126798    -0.17048966    -0.20433490    -0.48603638
O       4.40393701     0.85193198     0.92113302     0.14289117    -0.03131965     0.05786681
O       1.50144398     5.59971402     1.03964602     0.47204109    -0.83441867    -0.57049972
O       1.46236202     0.87988402     1.00510599     0.27266996    -0.19459453    -0.65032530
O       4.48954799     8.38907102     3.54370901    -0.56007209     0.69545101     1.16895069
O       4.44528898     3.73262502     3.84338801    -0.46651039     0.43617264     0.02025670
O       1.45286201     8.44594202     3.70926100    -0.10475347    -0.97399055    -0.84658540
O       1.39024802     3.82544599     3.74523003     0.78526199     0.21644069     0.56474739
O       2.98579601     1.41725600     3.26865998    -0.40198801    -0.20903282     0.22613709
O       5.82978198     6.10226101     3.19018098     0.54832960    -0.12842459     0.68615981
O       5.92660999     1.35505498     3.30326198     0.54639433     1.21791916    -1.01869459
O       2.98947601     7.88252002     1.33447802    -0.72144950    -0.40283288     0.19211727
O       3.06642098     3.30407998     1.63135699    -1.07508225    -0.25652831    -0.69657458
O       0.07634202     7.72666102     1.21487698    -0.30023220     0.84911330     0.45042736
O       5.91241301     3.08558698     1.31378000     0.13297879     0.58565407     0.90950366
