# total energy = -19947.99139446 eV

CRYSTAL
PRIMVEC
        5.68547765     0.00000000     0.00000000
        1.48952269     5.86487337     0.00000000
        0.00000000     0.00000000    10.25744247
PRIMCOORD
24 1
Ti      2.94340203     3.47551870     3.80543819     0.35557779    -2.05457290     0.93438680
Ti      4.23159848     2.38935506     6.45200486    -0.35557779     2.05457290    -0.93438680
Ti      5.51019078     2.38935708     1.32324238    -0.87933818    -0.52559693     0.20694868
Ti      1.66480975     3.47551690     8.93420078     0.87933818     0.52559693    -0.20694868
Ti      2.19864080     0.54308206     1.32328351     0.35557779    -2.05457290    -0.93438680
Ti      4.97635974     5.32179193     8.93415966    -0.35557779     2.05457290     0.93438680
Ti      0.92004841     0.54307981     6.45196373     0.87933818     0.52559693     0.20694868
Ti      6.25495211     5.32179412     3.80547932    -0.87933818    -0.52559693    -0.20694868
O       2.32397584     2.06512174     5.23429462     1.43575673     1.76693628    -0.68049438
O       4.85102461     3.79975202     5.02314843    -1.43575673    -1.76693628     0.68049438
O       1.56777480     2.06514541     0.10560615    -0.40685254    -0.12812352     0.86848452
O       5.60722577     3.79972845    10.15183661     0.40685254     0.12812352    -0.86848452
O       4.10626336     0.86731521     0.10557287    -1.43575673    -1.76693628    -0.68049438
O       3.06873715     4.99755855    10.15186989     1.43575673     1.76693628     0.68049438
O       4.86246452     0.86729158     5.23432790     0.40685254     0.12812352     0.86848452
O       2.31253594     4.99758224     5.02311515    -0.40685254    -0.12812352    -0.86848452
O       1.11257869     3.56734858     2.77079127     0.31226188     1.17986734     1.17538359
O       6.06242176     2.29752519     7.48665178    -0.31226188    -1.17986734    -1.17538359
O       3.63281342     2.29747049     2.35796290     0.91106714     1.08243175     0.27973047
O       3.54218709     3.56740332     7.89947998    -0.91106714    -1.08243175    -0.27973047
O       0.36781744     0.63491177     2.35793014     0.31226188     1.17986734    -1.17538359
O       6.80718307     5.22996205     7.89951274    -0.31226188    -1.17986734     1.17538359
O       2.79742584     0.63496645     7.48668448    -0.91106714    -1.08243175     0.27973047
O       4.37757467     5.22990731     2.77075851     0.91106714     1.08243175    -0.27973047
