# total energy = -19072.10237881 eV

CRYSTAL
PRIMVEC
        5.17600016     0.00000000     0.00000000
        0.00000000     5.50899976     0.00000000
        0.00000000     0.00000000     9.26300011
PRIMCOORD
22 1
Ti      2.12417199     3.41113497     3.25945600    -0.12187856     1.64638107     1.29506823
Ti      3.49753703     2.09841502     5.80598700    -0.33238617     0.44765262    -1.77789304
Ti      4.50502600     2.37497999     1.28240698     1.57952645    -1.55716658    -0.83282716
Ti      0.41655701     2.89115800     7.97920499     1.67898909     0.75691865     0.20366641
Ti      1.96241002     0.55684798     1.48583600    -0.35690885    -0.43391136    -2.34599624
Ti      2.83219199     5.11598500     7.99592598     2.63195032     2.20695247     2.06360570
Ti      0.69188698     0.18821099     6.03172798    -1.07776725    -0.32439389    -2.53915737
Ti      4.69899000     4.82802003     3.38861002    -1.33217260     1.83596271     1.54814946
O       3.75704100     3.55337898     4.61071799    -0.39992959    -0.51309982    -0.31318696
O       1.05185001     2.07940502     0.21625903    -0.33830459    -0.65191090    -0.31453474
O       4.25010100     3.35139600     9.03450798    -1.88330240     2.75875718    -1.18735516
O       3.42208302     1.03372601     9.19658699     0.21325612    -1.56148809     0.71001580
O       1.71612399     4.87188300     0.08801398    -1.56878103    -1.02154363     0.35351242
O       4.13826002     0.76885999     4.78822701     0.82114072    -0.58929038    -0.22431341
O       1.33526301     5.05084498     4.30620400    -0.91910776    -1.11585919    -0.06700477
O       0.38278402     3.68625402     2.29140099     1.13489204    -1.71704092    -0.08201694
O       4.84765901     1.49466501     6.98272501     0.22314176     0.69988925     1.15984024
O       2.85852401     2.17717798     2.03526301    -1.20331555    -0.74662832     1.99360868
O       1.54511798     4.32911801     6.89086799    -0.69573589    -3.88823962     0.46635355
O       0.11534201     0.84247902     2.29749299     1.15276919     0.43201440    -0.91431779
O       2.16632900     1.03943498     6.73947398     0.77498709     1.70164386     0.57181844
O       3.11687199     4.64217202     2.24430898     0.01893798     1.63439998     0.23296517
