# total energy = -19961.68355373 eV

CRYSTAL
PRIMVEC
        5.93400000     0.00000000     0.00000000
        0.00000000     9.29699974     0.00000000
        0.00000000     0.00000000     4.64899994
PRIMCOORD
24 1
Ti      4.45494800     6.94976298     2.32000599    -0.28427284     0.28127416     0.09208589
Ti      4.44428402     2.32330398     2.32752501     0.06786686    -0.00589888     0.29318275
Ti      1.48104599     6.98109901     2.33183199     0.33928727     0.22043207     0.01994817
Ti      1.47378902     2.34188397     2.32093099    -0.10304368    -0.23928006     0.08001739
Ti      2.96654602     4.65460700     0.00993202     0.10826020    -0.04471819    -0.06702406
Ti      2.97910202     0.00439201     4.64462698    -0.03864627    -0.25765497    -0.12023897
Ti      0.00654899     4.65056398     0.00113598    -0.11222407    -0.04973158    -0.06992555
Ti      5.93202702     9.28748498     0.02266302     0.04089650    -0.08731778    -0.26851429
O       4.41895098     5.56543302     0.88452300     0.23263993    -0.24409034    -0.01351244
O       4.43490499     0.89813900     0.86779402     0.19329226     0.18197966     0.23676938
O       1.49125901     5.56419898     0.90990800    -0.07732570    -0.01683945    -0.05996895
O       1.47551398     0.91436399     0.92654502     0.03945925    -0.19988483    -0.32030481
O       4.45656601     8.37239802     3.69800799    -0.00864534     0.39071732     0.49957221
O       4.45886799     3.72295701     3.71016701    -0.11223512     0.25045382     0.37413190
O       1.47464501     8.37813499     3.73466199    -0.08661921     0.04645214    -0.00382657
O       1.46539298     3.73823499     3.77367902     0.19502493    -0.06598867    -0.27582959
O       2.98084402     6.10113799     3.23183401    -0.45053766    -0.36796074     0.03414915
O       2.97979498     1.40698002     3.24384501    -0.04440374     0.31168415    -0.36837931
O       5.90262900     6.02396400     3.24005298     0.44799021     0.41195516    -0.38294513
O       5.92825901     1.41272403     3.20932598     0.14285054     0.05722224     0.00383969
O       2.98539097     7.87853002     1.39760601    -0.44726130    -0.10154293     0.11952137
O       2.99133300     3.24318602     1.40010003    -0.19658019    -0.17008085     0.18817885
O       5.90580099     7.88618002     1.40683502     0.41925992    -0.18904223     0.08400106
O       0.03590801     3.25630200     1.43596999    -0.26503301    -0.11213896    -0.07492814
