# total energy = -19945.62036592 eV

CRYSTAL
PRIMVEC
        5.80408568     0.00000000     0.00000000
        0.61622146     6.14648964     0.00000000
        0.00000000     0.00000000    10.40107656
PRIMCOORD
24 1
Ti      2.46887423     3.64240410     3.85872531     0.07396809    -1.24295015     0.72971663
Ti      3.95143309     2.50408559     6.54235160    -0.07396809     1.24295015    -0.72971663
Ti      5.25669854     2.50408767     1.34177160    -0.08748182     0.16114087    -0.33654236
Ti      1.16360879     3.64240231     9.05930549     0.08748182    -0.16114087     0.33654236
Ti      2.16076362     0.56915934     1.34181332     0.07396809    -1.24295015    -0.72971663
Ti      4.25954371     5.57733059     9.05926377    -0.07396809     1.24295015     0.72971663
Ti      0.85549810     0.56915707     6.54230994     0.08748182    -0.16114087    -0.33654236
Ti      5.56480916     5.57733280     3.85876703    -0.08748182     0.16114087     0.33654236
O       2.05401188     2.16428351     5.30758989     1.37946395     1.44281004    -0.27028346
O       4.36629543     3.98220624     5.09348702    -1.37946395    -1.44281004     0.27028346
O       1.28203158     2.16430836     0.10708492    -0.94007871     0.65121645     0.39002441
O       5.13827580     3.98218144    10.29399176     0.94007871    -0.65121645    -0.39002441
O       4.05818481     0.90896124     0.10705119    -1.37946395    -1.44281004    -0.27028346
O       2.36212250     5.23752851    10.29402548     1.37946395     1.44281004     0.27028346
O       4.83016518     0.90893644     5.30762367     0.94007871    -0.65121645     0.39002441
O       1.59014208     5.23755331     5.09345330    -0.94007871     0.65121645    -0.39002441
O       0.58569666     3.73864356     2.80959033     0.33574917     0.36776019     0.68809482
O       5.83461060     2.40784619     7.59148658    -0.33574917    -0.36776019    -0.68809482
O       3.35432522     2.40778894     2.39098120     0.55933984     0.75325946     0.06262644
O       3.06598210     3.73870074     8.01009560    -0.55933984    -0.75325946    -0.06262644
O       0.27758604     0.66539856     2.39094795     0.33574917     0.36776019    -0.68809482
O       6.14272122     5.48109113     8.01012879    -0.33574917    -0.36776019     0.68809482
O       2.75787148     0.66545580     7.59151977    -0.55933984    -0.75325946     0.06262644
O       3.66243584     5.48103395     2.80955714     0.55933984     0.75325946    -0.06262644
