# total energy = -39040.38274952 eV

CRYSTAL
PRIMVEC
        7.60629642    -0.00000847    -0.00005503
       -0.00000847     7.60629642    -0.00005503
       -3.80314186    -3.80314186     9.70738094
PRIMCOORD
46 1
Ti      1.92325067     4.75393660     6.19402239    -0.00017278    -0.00032062    -0.03756923
Ti      3.80293690     6.62349846     1.17706361     0.00329847     0.00260993    -0.00609249
Ti      1.82000523     0.95073399     5.94746321    -0.05901018    -0.00029413    -0.05632286
Ti      3.80299141     2.88448671     1.17706328     0.00337972    -0.00259424    -0.00605675
Ti     -1.91762816     4.75406666     6.09801446     0.01443264     0.00011699    -0.01357157
Ti     -0.00310329     6.67040859     1.25423924    -0.00277602     0.01135348    -0.01450334
Ti     -1.82710583     0.95092110     6.01849409     0.03803897    -0.00009744     0.00123953
Ti     -0.00306155     2.83754440     1.25430789    -0.00285598    -0.01132263    -0.01466661
Ti      3.80340574     0.95081435     8.63578803    -0.01482370     0.00001903     0.03047504
Ti      5.67892457     2.87632232     3.63754235    -0.00126627    -0.01105780     0.00357769
Ti      3.82329869    -2.85232947     8.55312480    -0.01637973    -0.00003600    -0.03779832
Ti      5.67893087    -0.97495325     3.63760341    -0.00129584     0.01125398     0.00321825
Ti      0.03718906     0.95074963     8.38878725    -0.01255959     0.00001260     0.02917920
Ti      1.91650167     2.80556259     3.60232109    -0.00209005     0.01594959    -0.01093902
Ti     -0.01653681    -2.85244603     8.51616712     0.01578195     0.00002854    -0.00653343
Ti      1.91646743    -0.90439491     3.60232597    -0.00205200    -0.01585471    -0.01078630
O       2.00093160     2.90824645     5.60069314    -0.00088292     0.00858003     0.02934633
O       3.84952192     4.75395346     0.72112739     0.01493117     0.00012136    -0.00270917
O       2.00092088    -1.00671014     5.60084638    -0.00080758    -0.00894590     0.02925094
O       3.77504976     0.95078807     0.78280007    -0.02275710     0.00008150     0.00869753
O      -2.04193413     2.82859380     5.67360420    -0.00504296    -0.02097044    -0.00854635
O      -0.04681452     4.75394146     0.84432867    -0.00634266     0.00012496     0.01159799
O      -2.04191603    -0.92695261     5.67362996    -0.00505582     0.02114553    -0.00868570
O       0.02530265     0.95081545     0.87578973     0.02001605     0.00001054     0.00421815
O       3.79727598     2.86620089     8.97032738    -0.00233533     0.00575773     0.00823242
O       5.74424452     4.75391757     4.11592547     0.00952311     0.00003522    -0.00269426
O       3.79726445    -0.96457426     8.97035540    -0.00231888    -0.00567366     0.00822779
O       5.64821154     0.95080091     4.02131517    -0.01653374    -0.00003137     0.01138742
O       0.01345945     2.82886155     8.86214723     0.00150924    -0.00515584     0.00525637
O       0.01352003    -0.92724350     8.86217048     0.00147504     0.00529930     0.00523374
O       1.97081921     0.95064892     3.99469157     0.02857191    -0.00011519    -0.01107632
O       2.02686627     0.95089823     7.94736402     0.02342687    -0.00005451     0.04180461
O       3.78376139     3.02550109     3.21610615    -0.00480514    -0.00846227    -0.01573130
O       1.90224935    -2.85237375     8.13194065    -0.00972006     0.00008793     0.01433056
O       3.78376569    -1.12393556     3.21610923    -0.00483496     0.00823448    -0.01563000
O      -2.00880630     0.95089211     7.99389882     0.02092159     0.00001620    -0.00825582
O       0.01783890     2.93117208     3.27407487     0.00257290    -0.02189578     0.00046563
O      -1.90218938    -2.85229433     8.11121201     0.00253999     0.00006299    -0.00836869
O       0.01781736    -1.02968039     3.27409088     0.00260350     0.02179216     0.00047463
O       3.81013136     4.75397871     6.55519393    -0.00195944    -0.00004422    -0.02953607
O       5.69399621     6.67970791     1.66161382     0.00351881     0.00622130     0.02820784
O       5.69400069     2.82812441     1.66162864     0.00356586    -0.00600327     0.02826286
O      -0.01171160     4.75393880     6.48672510    -0.01327307     0.00001928    -0.00158997
O       1.90653148     6.59325697     1.61532811    -0.00122745    -0.00903357     0.00779842
O       0.00769306     0.95076751     6.39690593     0.00432305     0.00011081     0.00955037
O       1.90656027     2.91466509     1.61539043    -0.00125187     0.00891839     0.00762949
