# total energy = -19516.87309664 eV

CRYSTAL
PRIMVEC
        5.93400000     0.00000000     0.00000000
        0.00000000     9.29699974     0.00000000
        0.00000000     0.00000000     4.64899994
PRIMCOORD
23 1
Ti      4.55483100     7.01833298     2.20512902     1.39381894    -0.06075853    -0.40639386
Ti      4.55165800     2.30742602     2.36267403    -1.13571865     0.05438451    -0.38746925
Ti      1.57613798     7.11191300     2.32600098    -1.01321402     0.37599415    -0.93662366
Ti      1.42962298     2.23032500     2.33522200     1.20131652    -0.11065312    -0.95385880
Ti      2.81108401     4.49979900     0.23808298     1.41361207    -0.94162420     0.48257953
Ti      3.00145801     9.21227497     4.38511200     0.45505406     0.37172920     1.42702500
Ti      5.88060401     4.71854500     0.03878001    -0.88307913    -0.14079418    -0.82462174
Ti      5.91653599     0.07590201     0.00202500    -0.46269255    -0.31283061     1.80116565
O       4.36991800     5.39968899     0.99625698    -0.32308983     1.34925373     0.61036469
O       4.33511502     0.91922401     0.87502898     0.85323247    -0.55614088     0.42365677
O       1.35197702     5.71313502     1.09260899     1.26977216    -2.40574767    -1.32520928
O       1.45682502     0.89611003     1.00197701     0.23104764    -0.75338416    -0.14107468
O       4.55879703     8.43357398     3.50382598    -0.66060715     0.56075549     1.27512572
O       4.37687102     3.68650903     3.86952598    -0.19854554     0.36632449    -1.02517943
O       1.36228999     8.46172902     3.62003299     0.89592617    -0.35910431     0.34016504
O       1.46483301     3.95116502     3.70006898     0.40826357    -0.08753170     0.04886666
O       2.97125501     1.40476398     3.34009499    -0.00891093     0.36892850    -0.83918421
O       5.78748400     6.10665202     3.29213301     0.46661734    -0.20922874     0.24825759
O       0.07491202     1.47250999     3.44864798    -0.44836688     1.40012560    -1.86412736
O       3.06842899     7.89703598     1.38878098    -1.23608350    -0.75650111    -0.07904654
O       3.00211901     3.14386998     1.53933000    -0.57482226     1.03410193    -0.68303566
O       0.10182900     7.80109398     1.27308299    -0.92750061     0.53501283     0.40522632
O       0.12007000     3.06455298     1.15591298    -0.71602961     0.27768901     2.40339048
