# total energy = -19516.52014252 eV

CRYSTAL
PRIMVEC
        5.17600016     0.00000000     0.00000000
        0.00000000     5.50899976     0.00000000
        0.00000000     0.00000000     9.26300011
PRIMCOORD
23 1
Ti      1.83691002     3.20047703     3.36880000     0.02760826     0.22570180     2.11389547
Ti      3.27154299     2.27770398     5.91635300     1.00735859     0.34125751    -2.79147396
Ti      4.38843502     1.99753802     1.38004500     0.66220715     1.38531064     0.28123405
Ti      0.93566698     3.26037100     7.69620798    -2.65079112    -0.18164156     2.21201574
Ti      2.07920901     0.22253798     1.30577000    -0.56495668    -0.14473079    -0.03525575
Ti      3.29263102     5.22959301     7.96517999     0.03817858     0.38620195    -0.60191527
Ti      0.69782800     0.56429001     5.91005801    -0.72259107    -0.01036952    -2.39709359
Ti      4.48169198     4.99607799     3.31519302     0.60475017    -0.62121681     3.33367843
O       1.61134002     1.93045602     4.79165502    -0.26581360     0.37439518     0.53674215
O       3.58409899     3.55030198     4.47431102    -0.82661691    -0.63693731     0.53083247
O       0.18818300     2.88359802     0.15075799    -0.27831919    -1.05403185    -0.91067659
O       3.47042299     0.91939901     0.10797999    -0.19532601    -0.04236537     0.43676991
O       1.79945999     4.58252602     9.08575102     1.45421752     0.59614288    -0.31152552
O       4.16099401     0.66189702     5.10827801    -0.44755286     0.56884753    -1.53736831
O       0.88597602     4.81293398     4.42391901     1.04337668    -0.03387584     0.48921221
O       0.12545300     3.49186800     2.52859099     0.74619432    -1.57742611    -0.04279449
O       4.70313298     1.94426998     7.07441799     2.22340034     1.11731572    -0.16748584
O       2.62117198     1.84618100     2.31386901     0.30051168     0.11142240    -0.69801594
O       2.47218599     3.77447098     6.91292299     1.58224127     0.13136234    -0.80374643
O       0.21241402     0.53263902     1.95862100     0.85517931     0.72510535    -0.29770300
O       0.06100001     4.85117598     7.18274798    -1.68402537    -1.34307331     1.20931496
O       2.30792598     1.09775799     7.10585598    -1.70355677    -0.59469355     0.17724703
O       2.96010498     4.47512500     2.30699997    -1.20567428     0.27729872    -0.72588800
