# total energy = -19915.71522202 eV

CRYSTAL
PRIMVEC
        7.32110185     0.00000000     0.00000000
        0.00003093     5.75920558     0.00000000
        0.00000000     0.00000000    11.65632197
PRIMCOORD
24 1
Ti      2.65356565     3.41289994     4.32441231     0.50249453    -0.78034321     1.17643157
Ti      4.66756720     2.34630584     7.33190972    -0.50249453     0.78034321    -1.17643157
Ti      6.31399013     2.34630784     1.50370213     0.50268711     0.78105721    -1.17707255
Ti      1.00714272     3.41289820    10.15262003    -0.50268711    -0.78105721     1.17707255
Ti      2.65355031     0.53329728     1.50374886     0.50249453    -0.78034321    -1.17643157
Ti      4.66758254     5.22590869    10.15257330    -0.50249453     0.78034321     1.17643157
Ti      1.00712738     0.53329508     7.33186298    -0.50268711    -0.78105721    -1.17707255
Ti      6.31400547     5.22591089     4.32445905     0.50268711     0.78105721     1.17707255
O       2.31718589     2.02791423     5.94813188     0.81284094     1.44023842    -1.21859176
O       5.00394702     3.73129155     5.70819015    -0.81284094    -1.44023842     1.21859176
O       1.34342969     2.02793746     0.12000839    -0.81260980     1.44003042    -1.21920497
O       5.97770329     3.73126838    11.53631332     0.81260980    -1.44003042     1.21920497
O       5.00393169     0.85168869     0.11997057    -0.81284094    -1.44023842    -1.21859176
O       2.31720123     4.90751708    11.53635113     0.81284094     1.44023842     1.21859176
O       5.97768795     0.85166553     5.94816970     0.81260980    -1.44003042    -1.21920497
O       1.34344489     4.90754032     5.70815233    -0.81260980     1.44003042     1.21920497
O       0.26601139     3.50307530     3.14866336    -1.40511123     0.29727209     0.03628599
O       7.05512152     2.25613048     8.50765867     1.40511123    -0.29727209    -0.03628599
O       3.92657021     2.25607676     2.67953472    -1.40437718    -0.29707745    -0.03608596
O       3.39456271     3.50312908     8.97678712     1.40437718     0.29707745     0.03608596
O       0.26599606     0.62347251     2.67949749    -1.40511123     0.29727209    -0.03628599
O       7.05513686     5.13573333     8.97682435     1.40511123    -0.29727209     0.03628599
O       3.39454737     0.62352622     8.50769583     1.40437718     0.29707745    -0.03608596
O       3.92658554     5.13567955     3.14862613    -1.40437718    -0.29707745     0.03608596
