# total energy = -19958.77806344 eV

CRYSTAL
PRIMVEC
        5.93400000     0.00000000     0.00000000
        0.00000000     9.29699974     0.00000000
        0.00000000     0.00000000     4.64899994
PRIMCOORD
24 1
Ti      4.48709398     6.82530801     2.37176201    -0.87353854     1.99814488     0.78026351
Ti      4.42674000     2.50288599     2.36715399     0.43522725    -4.36814905    -0.23627727
Ti      1.47907698     6.89643298     2.11676599     1.37200132     1.70752989     1.67501905
Ti      1.47472100     2.55805002     2.32151901     0.36269923    -2.98504468     1.96216947
Ti      3.00326701     4.65205002     0.02223502    -0.56892749    -0.38173260    -0.79888627
Ti      2.90587701     9.09524600     4.63138300     0.98921920     1.16914609    -1.42515530
Ti      5.89462900     4.66664499     0.01073198     0.31845901    -0.73354577    -0.10101020
Ti      0.02593900     9.29155001     0.16938302    -1.74301396     1.02926363    -1.01556093
O       4.33239500     5.64421402     0.80048198     0.96313329    -0.49646298    -0.86412110
O       4.48128002     0.89637700     0.98330801     0.74439995    -0.66708325    -1.21982667
O       1.45277602     5.52947500     0.87281802     0.09355399     0.36091257    -0.62108722
O       1.57773102     0.87384902     0.80895898    -0.62840356    -0.01928919     0.31541585
O       4.55505802     8.25504402     3.70376899    -0.69326917     0.94306479     0.67733372
O       4.40549898     3.54562902     3.80695998     0.01593699     2.93068897     2.78675110
O       1.45754698     8.28237502     3.61265901     0.66650449     0.20222171     1.13940124
O       1.39776799     3.75090900     3.81769498     0.86563445     0.36970446    -0.06975303
O       3.02236200     5.89015502     2.92167798    -1.48161546    -0.44147169     2.20885149
O       2.93275498     1.45793000     3.17556500     0.26658159     0.59786861    -0.63211700
O       5.77192100     5.93914699     3.32368103     1.71921813     0.32670531    -1.44883388
O       0.02057399     1.65110599     3.25066600     0.85872435    -0.93820798    -0.56929130
O       3.02539799     7.86616399     1.39741001    -1.25554162    -0.37562443    -0.07508447
O       3.11412599     3.55309598     1.57797200    -1.58592772    -0.41985847    -1.16302661
O       5.91008902     7.79093399     1.42808599     0.72086380     0.09880882    -0.63672416
O       0.11728600     3.44223599     1.49255602    -1.56191927     0.09241037    -0.66845030
