# total energy = -19076.68435083 eV

CRYSTAL
PRIMVEC
        7.60600008     0.00000000     0.00000000
        0.00000000     7.60600008     0.00000000
       -1.89786986    -1.89786986     4.85670466
PRIMCOORD
22 1
Ti      3.77118400     6.52706398     1.04963202     0.23832721     0.59660697     2.09617388
Ti      3.78824600     2.85075198     1.20488199    -0.11544926    -0.72518352     0.33132148
Ti      0.02351600     6.71089798     1.06443501    -0.32813485    -0.78090577     3.12585068
Ti     -0.02754701     2.92364297     1.22188800     0.06471109     0.18261344    -0.03572601
Ti      5.74069023     2.85648525     3.62443479    -0.26749690    -0.43573093    -0.17054082
Ti      5.80689020    -0.93296378     3.74049881    -0.41527342     1.07053345    -1.27231499
Ti      1.93253521     2.80670724     3.59299483    -0.11923675    -0.53222704    -0.59321260
Ti      1.90349221    -0.97562478     3.75341280    -0.33933072     0.53159609    -0.04580113
O       3.60832298     4.63619698     0.71831001     0.33616364     1.58816433     0.31169829
O       3.72241402     0.90582403     0.89964599     0.23866711    -0.26885650    -0.27510017
O       0.04939700     4.76771700     0.75571898    -0.10905621     0.09724636    -0.04966730
O      -0.08788401     0.99547602     0.83875600     0.13303201    -0.03415172     0.15727881
O       5.77759923     4.80069125     4.14966083     0.25221452     0.12763938    -2.17065182
O       5.70834723     1.01993020     3.91222080     0.00492161    -1.23883150     0.55739506
O       1.85311422     4.69672925     4.06153080    -0.02145355     0.80291802    -0.46288076
O       1.84358522     0.92478524     4.01329884     0.35546826    -0.69397828     0.12774839
O       3.80772321     3.02623621     3.30283679    -0.10184246    -0.50562228    -0.71338755
O       0.00072222     2.87287122     3.18595481    -0.41384646     0.22543287    -0.00893716
O       5.65931901     6.40612300     1.85550700     0.00799973     0.74355971    -0.50612724
O       5.68152700     2.92298500     1.56663301    -0.36076345     0.06243078     0.33433815
O       1.87454098     6.63977402     1.89131997     0.03442451    -0.13799167    -1.03389213
O       1.84148301     2.94394401     1.61107998     0.92595409    -0.67526219     0.29643493
