# total energy = -4868.00979779 eV

CRYSTAL
PRIMVEC
        5.59062787     0.00000000     0.00000000
       -0.00000691     1.86354262     0.00000000
       -2.79534952    -0.93189257     6.34211993
PRIMCOORD
6 1
Ti     -0.00023926     1.39770141     1.58552959    -0.06710068    -0.04592378   129.09915959
Ti      2.79551055    -0.46605141     4.75658941     0.06710068     0.04592378  -129.09915959
O       0.00005902     0.46586546     1.03307934     0.06750408     0.04450376  -124.75631046
O       2.79521211     0.46578449     5.30903971    -0.06750408    -0.04450376   124.75631046
O      -0.00002565    -0.46594372     4.20413916    -0.00094745    -0.00132283    -0.39026609
O       2.79529667     1.39759362     2.13797990     0.00094745     0.00132283     0.39026609
