# total energy = -19938.06486574 eV

CRYSTAL
PRIMVEC
        5.94627938     0.00000000     0.00000000
        1.55784942     6.13390426     0.00000000
        0.00000000     0.00000000    10.72796736
PRIMCOORD
24 1
Ti      3.07842047     3.63494617     3.97999958     0.05580813    -2.02484245     0.85532509
Ti      4.42570850     2.49895850     6.74796838    -0.05580813     2.02484245    -0.85532509
Ti      5.76295183     2.49896062     1.38394157    -0.39390781    -0.52050640    -0.00828024
Ti      1.74117717     3.63494428     9.34402651     0.39390781     0.52050640     0.00828024
Ti      2.29949588     0.56799408     1.38398459     0.05580813    -2.02484245    -0.85532509
Ti      5.20463312     5.56591083     9.34398350    -0.05580813     2.02484245     0.85532509
Ti      0.96225247     0.56799173     6.74792537     0.39390781     0.52050640    -0.00828024
Ti      6.54187652     5.56591312     3.98004259    -0.39390781    -0.52050640     0.00828024
O       2.43058024     2.15985210     5.47439988     1.68534872     1.95248052    -0.65228629
O       5.07354867     3.97405257     5.25356808    -1.68534872    -1.95248052     0.65228629
O       1.63969108     2.15987685     0.11045047    -0.61532975     0.00542863     0.94813861
O       5.86443797     3.97402792    10.61751719     0.61532975    -0.00542863    -0.94813861
O       4.29462407     0.90710031     0.11041566    -1.68534872    -1.95248052    -0.65228629
O       3.20950491     5.22680436    10.61755200     1.68534872     1.95248052     0.65228629
O       5.08551335     0.90707560     5.47443469     0.61532975    -0.00542863     0.94813861
O       2.41861557     5.22682913     5.25353327    -0.61532975     0.00542863    -0.94813861
O       1.16361441     3.73098842     2.89789179     0.42355444     1.44576038     1.50186547
O       6.34051450     2.40291625     7.83007617    -0.42355444    -1.44576038    -1.50186547
O       3.79945624     2.40285905     2.46612633     0.81217374     1.41856067     0.57983823
O       3.70467274     3.73104568     8.26184145    -0.81217374    -1.41856067    -0.57983823
O       0.38468980     0.66403616     2.46609207     0.42355444     1.44576038    -1.50186547
O       7.11943917     5.46986857     8.26187571    -0.42355444    -1.44576038     1.50186547
O       2.92574813     0.66409335     7.83011037    -0.81217374    -1.41856067     0.57983823
O       4.57838084     5.46981131     2.89785753     0.81217374     1.41856067    -0.57983823
