# total energy = -19073.52620028 eV

CRYSTAL
PRIMVEC
        5.17600016     0.00000000     0.00000000
        0.00000000     5.50899976     0.00000000
        0.00000000     0.00000000     9.26300011
PRIMCOORD
22 1
Ti      1.78463398     3.43660999     3.47081902     1.19165096     1.26227765    -1.55066657
Ti      3.70456402     2.18111702     5.81711898    -1.44774090     0.15186972     0.35439533
Ti      4.27646599     2.29488499     1.36134001     0.13299267     0.67412267    -2.06906158
Ti      0.73165401     3.13835903     7.90074800    -0.79468843     0.04508894     1.61055196
Ti      1.78586802     0.55450002     1.12798301    -0.01989855     0.81280006    -0.52803588
Ti      3.28796802     5.07597301     8.03992098     0.38849743    -0.30897909     1.01857452
Ti      0.84601202     5.50880698     6.15290698     0.30035715     1.08622567    -0.65150416
Ti      4.41913900     5.04235697     3.40026499    -0.65243618     0.26184921    -0.41306690
O       3.49285201     3.49518700     4.35569298     0.57996087    -1.25084421     1.48336381
O       0.93003198     2.04965002     0.07824399     0.13603403    -1.94499398     1.19558990
O       4.26655402     3.61220799     9.06055901     0.23729260     0.70426373    -0.81167777
O       3.48840501     0.97526700     0.04333798    -0.27008652    -0.64175479     0.93130225
O       1.86691501     4.55983998     9.10297998    -1.24524794     0.89291129    -0.51854593
O       4.35402400     0.65657599     4.90272102    -0.56517959     0.87989636     0.61736426
O       1.14111899     5.03913000     4.37181198    -0.17484408    -1.44065546     0.14337196
O       0.10152202     3.67620801     2.47750798     0.47343951    -0.95392976    -0.56351840
O       4.99606799     1.61869600     7.08661700     0.51396860    -0.38869515    -0.98365353
O       2.41706397     2.13994602     2.08863302     2.20674781    -0.05067441     0.86207064
O       2.01790399     3.66569902     6.57400798    -0.02695571     0.65512170     0.70391920
O       0.13459301     1.02542301     2.33265999    -0.69043710    -1.21188607    -0.55565031
O       2.44273600     0.90995600     6.75713500    -0.29229289    -0.52417871    -0.25209830
O       2.73183400     4.72254299     2.36463500     0.01886702     1.29016462    -0.02302449
