# total energy = -19960.82639461 eV

CRYSTAL
PRIMVEC
        7.60600008     0.00000000     0.00000000
        0.00000000     7.60600008     0.00000000
       -1.89786986    -1.89786986     4.85670466
PRIMCOORD
24 1
Ti      3.72546600     6.71544901     1.26815502     1.45567867     0.73562143     0.12295277
Ti      3.82382100     3.06508602     1.26807501    -0.28263608    -0.70646331    -0.43484544
Ti      0.08016501     6.61608201     1.16144701    -1.27554686     0.73961152     0.90594216
Ti      0.00174401     2.87900698     1.23272100    -0.05778325    -1.21534806    -2.30559365
Ti      5.77057223     2.80851824     3.64976582    -1.39391330    -1.89899256    -0.62188529
Ti      5.77776322    -1.09803078     3.64752480    -0.53049488     2.00307394    -1.08728291
Ti      1.78274820     2.91902220     3.58596080     1.78772289    -0.52521949     0.37925071
Ti      1.88242524    -0.94988475     3.70359579     0.25098270     0.19344910     0.78546742
O       3.74265399     4.90468601     0.63921500     0.28546429    -1.31915922     1.98368550
O       3.60504700     0.98187600     0.77283898     0.59405258    -0.35567549     0.43791251
O       0.13659102     4.71973401     0.69370999    -0.78142565    -0.10288633     0.81277512
O       0.06162999     0.90566501     0.70014997    -0.01481136    -1.05801706     0.93307245
O       5.90305022     4.65335523     4.00814883    -0.27514208     0.26674897    -0.15351728
O       5.67591221     0.81893423     4.06618481    -0.15696539     1.46358251    -0.12144662
O       1.78981420     4.78879725     4.10320182    -0.02346698     0.28582245    -1.12735202
O       1.80901423     1.04493324     4.27305480     0.50563899    -0.78450737    -2.24571623
O       3.71833824     2.81285321     3.17780279     0.40106756     0.36368602     0.36183148
O       3.79749120    -1.08050279     3.25308481    -0.26501064     0.26904573    -0.15300743
O      -0.01474177     2.61137521     3.21545782    -0.31054207     0.39954958    -0.34617346
O       0.04870320    -0.93861375     3.16661783    -0.24258239     0.01577552    -0.20693917
O       5.71758000     6.64331501     1.59876999     0.25450460    -0.21119666     0.08218303
O       5.72238303     2.87654800     1.62496601    -0.79868444     0.35106884     0.17459340
O       1.90235602     6.47720500     1.60466101    -0.24885125     0.62276975     0.51360273
O       1.80255901     2.86748399     1.50026301     1.12274383     0.46765967     1.31048997
