# total energy = -4988.22946766 eV

CRYSTAL
PRIMVEC
        4.33273637     0.00000000     0.00000000
       -0.00000875     3.92009525     0.00000000
       -2.16639875    -1.96008697     5.27942303
PRIMCOORD
6 1
Ti     -0.00018940     2.94021873     1.31985550    -0.00195147    -0.00019360     1.41287390
Ti      2.16651792    -0.98021034     3.95956690     0.00195147     0.00019360    -1.41287390
O       0.00004402     0.98001643     0.85997478    -0.00025531    -0.00105775    -0.64020698
O       2.16628433     0.97999185     4.41944773     0.00025531     0.00105775     0.64020698
O      -0.00002222    -0.98000273     3.49968618    -0.00206305    -0.00041909    -1.32283075
O       2.16635057     2.94001094     1.77973633     0.00206305     0.00041909     1.32283075
