# total energy = -19961.45859943 eV

CRYSTAL
PRIMVEC
        7.60600008     0.00000000     0.00000000
        0.00000000     7.60600008     0.00000000
       -1.89786986    -1.89786986     4.85670466
PRIMCOORD
24 1
Ti      3.71923298     6.68496099     1.25749300    -0.08046425    -0.58536662     0.97159608
Ti      3.80707000     2.94584900     1.23408400     0.24614620     0.14801332    -0.09219722
Ti      0.02325999     6.60350199     1.21350101     0.30002831    -0.46176053    -1.04323347
Ti      0.06754201     2.73062002     1.14264101    -0.86485489     1.02984855     0.26699836
Ti      5.73280422     2.81091520     3.61118684     0.58925310     0.01246600     0.17975849
Ti      5.75962425    -1.01553078     3.57443479    -1.06766667    -0.04764642     0.16007694
Ti      1.89797724     2.94250222     3.67928179    -0.62527015    -0.41750591    -1.01584915
Ti      1.82135322    -0.94447979     3.76007879     1.06965619     0.24226074    -1.20852255
O       3.62637099     4.80193699     0.72215099     0.55914932    -0.30165196     1.17094201
O       3.74726498     0.93066599     0.81173499     0.06661654     1.29067832     0.53728106
O       0.16695198     4.65213400     0.69766999    -0.78002799     0.91955744    -0.06764421
O       0.09727199     0.89868902     0.81439701    -0.32104117    -0.32451628    -0.41087118
O       5.85919720     4.75028421     4.05937282    -0.40378393    -0.25709473     0.23370874
O       5.67438623     0.86586220     3.89479981    -0.28517453     0.49161670     0.69227852
O       1.71714425     4.80378122     4.15063182     0.25425623     0.03262037    -0.92201979
O       1.90265421     1.06048121     4.13171082     0.28277234    -1.28821804    -0.59608529
O       3.81655322     3.05075024     3.14824882    -0.60742129    -0.21751901     0.93672856
O       3.74419321    -1.13272676     3.18433479    -0.12354335     0.56575269     0.75487694
O      -0.00445276     2.89142121     3.09608480    -0.04679692    -0.34354708     1.12805342
O       0.00756422    -0.81611779     3.17884881     0.40336227    -0.24555690     0.49556669
O       5.70231498     6.55542200     1.66307302     0.03978449    -0.08131400    -0.75239737
O       5.73374197     2.90753101     1.65198501    -0.97952588    -0.21161678    -1.16831665
O       1.86577198     6.54836802     1.63496498    -0.02751390     0.45445371     0.38237743
O       1.80884997     2.90829202     1.69138998     2.40205942    -0.40395388    -0.63310636
