# total energy = -19960.42723377 eV

CRYSTAL
PRIMVEC
        5.93400000     0.00000000     0.00000000
        0.00000000     9.29699974     0.00000000
        0.00000000     0.00000000     4.64899994
PRIMCOORD
24 1
Ti      4.47472600     6.99735697     2.35441701     1.16816753    -0.01533329    -0.34623542
Ti      4.46528500     2.45050999     2.38922502    -1.01112423    -0.88476166    -0.35422898
Ti      1.52936300     6.85915498     2.19015002    -1.34871123     0.55480005     0.48314080
Ti      1.49025802     2.38383201     2.41880999     0.80433650    -1.51885122    -1.21997425
Ti      2.96555799     4.65532001     4.63886901    -0.30247009     0.73975396     0.47218276
Ti      2.98606102     9.20176297     0.01378999    -1.53393177     0.85989986     0.31997416
Ti      5.88860998     4.61036302     4.62174901     0.75626148     1.24780953     0.49119170
Ti      5.92518798     0.06804701     4.57493900     1.24467253    -0.19336271     1.31382983
O       4.49631400     5.60992799     0.80131602    -0.59973369    -0.06668261     0.43586591
O       4.41369498     0.67983100     0.86807998     0.53866997     2.38097148     2.05707921
O       1.49400898     5.57918798     0.78183901    -0.03040382    -0.11640185     0.44549547
O       1.43618700     0.89029400     1.05216799    -0.11990036     0.22442294    -0.59466064
O       4.38993101     8.38910701     3.78494102     0.71298645    -1.46353957    -1.86346659
O       4.45507998     3.77426000     3.85407099    -0.38842210    -1.34707395    -1.62903511
O       1.46235402     8.38009999     3.87879399    -0.26365876    -0.34100425    -1.44918715
O       1.49777101     3.77124798     3.69620202    -0.09770710     0.03133945     0.68569341
O       2.93816699     5.96137302     3.10816798     0.61600312    -0.02231924     0.56771881
O       3.06989799     1.51251098     3.25726103    -0.70363381    -0.29211805     0.08595741
O       5.91421798     6.00863400     3.18560498    -0.28377302     0.05358412    -0.10920610
O       5.88042298     1.54527700     3.32610302     0.16842609    -0.33811202    -0.12799265
O       2.89859802     7.82749500     1.40986599     0.81425325     0.07675620     0.28917259
O       2.93109501     3.32293198     1.49364602     0.53386354    -0.04486345    -0.53992441
O       0.02609299     7.77972501     1.37495601    -0.74263797     0.19842496     0.70368369
O       5.92437803     3.23148999     1.42133601     0.06846722     0.27666134    -0.11707471
