# total energy = -19960.27758647 eV

CRYSTAL
PRIMVEC
        7.60600008     0.00000000     0.00000000
        0.00000000     7.60600008     0.00000000
       -1.89786986    -1.89786986     4.85670466
PRIMCOORD
24 1
Ti      3.70457302     6.73910001     1.31288701     0.73709518     1.16648114    -0.22153507
Ti      3.76566902     3.11676600     1.27916000    -0.45593981    -1.99288054    -1.77372271
Ti      0.10725502     6.52682500     1.18190098    -1.05634661     2.20662877     0.22442448
Ti      0.02607600     2.90997501     1.10094702     0.58247181    -2.13560973     1.26592399
Ti      5.68827623     2.80886623     3.51131183     0.49663858    -0.51273910     0.16241073
Ti      5.75830421    -1.08799377     3.58521979     0.11480777     0.55836360     0.97845115
Ti      1.86267820     3.05095720     3.65417582    -0.35937094    -2.89877539    -0.60051068
Ti      1.85768325    -0.96861879     3.68396183    -0.46789467     2.11021313     1.11450936
O       3.69805202     4.87593602     0.80786803     0.57981252     0.28303023     0.17890591
O       3.65677001     1.00172999     0.74232598     0.49525070    -1.40911675     1.27636782
O       0.11818698     4.67393901     0.60572200    -0.21119306     0.16624888     1.44215467
O       0.24550501     0.79335698     0.80610401    -0.77053291     0.21492399    -0.28187451
O       5.92250521     4.68396020     4.07384582    -0.84488075    -0.72999097    -1.04377725
O       5.62485624     0.87398825     4.12420979    -0.04238182    -0.49748294    -1.70305900
O       1.78505224     4.84451221     4.13280082     0.14081372    -1.21126180    -0.30590920
O       1.80380824     1.04352822     4.21982582     0.51556654    -0.13905405    -0.68627654
O       3.77081823     2.87285921     3.31650782     0.69439506     0.60671012     0.03360047
O       3.71469724    -1.05230579     3.19350279     1.09647743     0.42430314     0.65957948
O       0.05995822     2.67149425     3.10497583    -1.06921653     0.90545442     0.28803951
O      -0.03129877    -1.06464076     3.23746080     0.85414136     0.53419573    -0.22085759
O       5.77052800     6.61121200     1.67952800    -1.18282256    -0.13237921    -0.70508828
O       5.65295698     2.84655201     1.59339900     0.95371379     0.17646310     0.03360150
O       1.86780699     6.29536499     1.70537000     0.36362508     0.92512800    -0.22614609
O       1.98014100     2.69541899     1.67603299    -1.16423014     1.38114597     0.11078759
