# total energy = -19071.81440931 eV

CRYSTAL
PRIMVEC
        7.60600008     0.00000000     0.00000000
        0.00000000     7.60600008     0.00000000
       -1.89786986    -1.89786986     4.85670466
PRIMCOORD
22 1
Ti      4.22310201     6.47251099     1.09825801     1.49036981     3.89036000    -0.39034940
Ti      3.43640102     2.69821500     1.16367199    -1.27343907    -0.37140525     0.71229123
Ti      0.21838399     6.64437601     0.96566402    -0.60185331    -0.11300414     0.72062392
Ti     -0.33038901     2.85886602     1.18798398    -0.09982723     0.58521209    -1.85599650
Ti      5.45328322     2.86100321     3.49535279    -1.51233630     0.14024679     0.73646938
Ti     -1.34877676    -0.53527575     3.91322782     0.73187199    -1.16479141    -0.04434178
Ti      1.74237124     2.76894023     3.96042879     1.53812756     0.01664379    -0.75561870
Ti      1.99941120    -0.94150280     3.80188882    -0.48868513    -0.30176920    -1.72272692
O       3.36098601     4.92354700     0.91830298    -0.22236502    -2.42666231     1.09047622
O       3.72146700     0.68975201     0.78423100    -0.71598899     1.23687231     1.76847997
O      -0.28454300     4.75187502     1.08655002     0.50368701     1.18185223    -2.02870913
O      -0.22610500     0.97134998     0.91218400     1.63886676    -0.65930154    -1.88737991
O       5.87717224     4.80082423     3.81266483     0.03586587    -0.36529399     1.69550278
O       5.14995025     0.86341724     3.96903983     0.24189796     1.14540426    -0.34696433
O       2.38193322     4.75381123     4.00529979    -0.46465148    -0.40545309     0.91103063
O       2.29123621     0.92092521     4.36660583    -0.08910470    -0.34519310    -2.16071810
O       3.55801124     2.76939024     3.31901781     0.37877814     0.28311199    -1.20665361
O       0.32229921     2.86704720     2.83574780    -0.30751665    -0.40404927     2.14207888
O       6.07158598    -0.67756199     1.85687800    -1.82104851    -1.56201594     1.16259106
O       5.38896903     2.61108200     1.67253302     1.09038880     0.71002146     0.41349653
O       1.90737299     6.78785798     1.85659102    -0.63526815    -0.28918853     0.68526404
O       1.63803098     2.73993401     0.36664601     0.58223090    -0.78159714     0.36115348
