# total energy = -19947.82299088 eV

CRYSTAL
PRIMVEC
        6.42828472     0.00000000     0.00000000
        0.00002530     4.56109251     0.00000000
        0.00000000     0.00000000     9.98716684
PRIMCOORD
24 1
Ti      2.32995912     2.70289918     3.70516766     0.26624143     0.67760549    -0.64234717
Ti      4.09835101     1.85819333     6.28199928    -0.26624143    -0.67760549     0.64234717
Ti      5.54399067     1.85819492     1.28837588     0.26779386    -0.67768417     0.64313650
Ti      0.88431946     2.70289781     8.69879112    -0.26779386     0.67768417    -0.64313650
Ti      2.32994647     0.42235304     1.28841592     0.26624143     0.67760549     0.64234717
Ti      4.09836365     4.13873964     8.69875108    -0.26624143    -0.67760549    -0.64234717
Ti      0.88430681     0.42235134     6.28195919    -0.26779386     0.67768417     0.64313650
Ti      5.54400332     4.13874134     3.70520770     0.26779386    -0.67768417    -0.64313650
O       2.03460166     1.60603823     5.09637481     1.19671553    -0.09548566     0.41213282
O       4.39370847     2.95505434     4.89079214    -1.19671553     0.09548566    -0.41213282
O       1.17959623     1.60605661     0.10282348    -1.19627947    -0.09601223     0.41187108
O       5.24871401     2.95503595     9.88434313     1.19627947     0.09601223    -0.41187108
O       4.39369587     0.67450802     0.10279106    -1.19671553     0.09548566     0.41213282
O       2.03461426     3.88658449     9.88437556     1.19671553    -0.09548566    -0.41213282
O       5.24870136     0.67448970     5.09640718     1.19627947     0.09601223     0.41187108
O       1.17960872     3.88660292     4.89075971    -1.19627947    -0.09601223    -0.41187108
O       0.23356997     2.77431502     2.69778294    -0.58488762     0.14287009     0.85206288
O       6.19474016     1.78677755     7.28938401     0.58488762    -0.14287009    -0.85206288
O       3.44771952     1.78673502     2.29583230    -0.58406024    -0.14251167    -0.85205516
O       2.98059061     2.77435755     7.69133448     0.58406024     0.14251167     0.85205516
O       0.23355732     0.49376871     2.29580037    -0.58488762     0.14287009    -0.85206288
O       6.19475281     4.06732380     7.69136636     0.58488762    -0.14287009     0.85206288
O       2.98057802     0.49381124     7.28941583     0.58406024     0.14251167    -0.85205516
O       3.44773211     4.06728133     2.69775106    -0.58406024    -0.14251167     0.85205516
