# total energy = -39032.39020901 eV

CRYSTAL
PRIMVEC
        7.60600008     0.00000000     0.00000000
        0.00000000     7.60600008     0.00000000
       -3.79573973    -3.79573973     9.71340985
PRIMCOORD
46 1
Ti      1.94737244     4.82540346     6.15060664    -0.58141920     0.72266718     1.17058462
Ti      3.68637202     6.89479200     1.02008699    -0.86946025     1.18419348     0.37224034
Ti      1.97600347     0.68278645     6.16119860     0.53128576     1.31574582    -0.43056095
Ti      3.64391301     2.97705400     1.35390698    -0.75200862    -1.26139833    -0.28869128
Ti     -2.01495557     4.33876544     6.18809462     4.28062867     1.76481769    -2.38148236
Ti     -0.16997300     6.71435600     1.26047301     0.89140591     0.05726877    -1.98020294
Ti     -1.74182253     0.62476344     6.02735962    -0.69194120    -1.23915726    -0.25419221
Ti     -0.34193698     3.00739300     1.13058301     2.08790443    -0.27427227     0.62421934
Ti      4.04316444     1.08251546     8.44921662    -3.70026851     0.15962289     0.99862275
Ti      5.68205702     2.71758897     3.64046399    -1.60477006     0.21987671    -0.25366462
Ti      4.05013947    -2.67339458     8.52457760    -1.89375985    -0.40798846     2.20023289
Ti      5.67267698    -1.12440201     3.49937099    -2.09067608    -0.30308278     2.43269772
Ti      0.12121847     0.99887244     8.51904061    -0.08419080     3.17060795    -3.40693278
Ti      1.65624600     2.70619298     3.57520400     1.28591613    -1.28419271    -1.35726452
Ti      0.13265246    -2.31354955     8.45261764     2.07732408    -0.89368494     0.61667367
Ti      1.84026501    -1.15086098     3.50292400     1.51360025     1.58790696     0.78002311
O       1.99655047    -0.99414355     5.64270560     0.82257128    -2.23043796    -1.23791001
O       4.11089500     1.21507802     0.63524998    -1.17292793    -1.59302628     0.16032557
O      -1.64705054     2.58969244     5.58801460    -0.36936893     2.39508710     2.07571894
O       0.17848598     4.75126800     0.80008600    -0.63711729     1.36476700     0.63724198
O      -1.97995256    -1.21137557     5.63056760     0.21294836     0.99233923    -0.54076773
O       7.33082601     0.93805198     0.65729302    -0.06726085     1.00705777     1.59347494
O       3.83602943     2.87996844     9.04521065     0.46918176     0.18095765    -1.46609319
O       5.47265402     4.50764898     4.06601299    -0.38487809     1.45289982     0.98162004
O       3.91376547    -0.83036557     9.01861764    -0.00460382    -0.82799991    -1.55288672
O       5.88784702     0.91845099     4.18031400    -0.38509380    -2.92256659    -2.10273456
O       0.11924745     2.72575645     8.82874164    -0.55544771     2.75391887     1.62634497
O       2.14940898     4.38186402     4.29338400    -0.57647420     0.81760108    -0.57527169
O       0.28121643    -0.57780954     9.11305260    -0.45406984    -3.66768902     1.30786410
O       1.57171401     0.91973800     4.13589100     0.09492259     0.56862230     0.45216954
O       1.99761147     0.98910742     8.01582664     0.30870501     0.33627625     0.51801474
O       3.69911202     2.47027201     3.08492800     0.39801077     0.20818076     1.67614802
O       1.98183347    -2.59041853     8.22787061     0.65753031    -0.42895067    -1.73269869
O       3.57295600    -0.67581100     3.08023901     1.13260941    -1.26599393     0.78593279
O      -1.94045853     0.97430247     7.96839564     4.20754632     0.04730652     0.52573140
O      -0.15175100     2.98311498     3.24672299     0.37316028    -0.18937159    -0.72437465
O      -1.68465456    -2.65823958     8.24492160    -1.55871207    -0.77057610    -0.88714765
O      -0.14128202    -1.15898999     3.24507503     0.85717269    -0.14497428    -0.50198468
O       3.96224646     4.75680044     6.57681664    -2.73688119    -0.85494843     0.51677676
O       5.45850001     6.52625597     1.55103498     1.75264377    -0.33607313     0.62302198
O       3.89143244     0.92790945     6.46489962    -0.63555071     0.12160371    -0.73724379
O       5.54060000     3.28462399     1.65440102     0.13009427    -0.05046152    -0.02213309
O       0.17204844     5.03770143     6.43562664    -0.99038262    -1.49248249     0.32980195
O       1.83110098    -0.59730999     1.53883601    -1.10657030    -0.95847573     0.20214483
O       0.08793143     0.48360546     6.62696163    -0.75883490     0.55845744    -0.65935194
O       1.69932499     2.74431401     1.65037298     0.57750701     0.41002169    -0.11403721
