# total energy = -19878.10234908 eV

CRYSTAL
PRIMVEC
        9.53114804     0.00000000     0.00000000
        0.00003001     3.84773324     0.00000000
        0.00000000     0.00000000    14.75184080
PRIMCOORD
24 1
Ti      3.45460066     2.28016310     5.47282774     0.27309985    -0.19011387     2.37347414
Ti      6.07657766     1.56757000     9.27901319    -0.27309985     0.19011387    -2.37347414
Ti      8.22001200     1.56757131     1.90303378     0.27508526     0.18869333    -2.38026340
Ti      1.31116631     2.28016199    12.84880728    -0.27508526    -0.18869333     2.38026340
Ti      3.45458579     0.35629655     1.90309292     0.27308545    -0.18990972    -2.37875956
Ti      6.07659253     3.49143668    12.84874814    -0.27308545     0.18990972     2.37875956
Ti      1.31115144     0.35629517     9.27895405    -0.27484306    -0.18885531    -2.37408735
Ti      8.22002687     3.49143806     5.47288688     0.27484306     0.18885531     2.37408735
O       3.01667923     1.35485226     7.52775142     0.74286397     0.81220485    -2.38093420
O       6.51449915     2.49288085     7.22408951    -0.74286397    -0.81220485     2.38093420
O       1.74897186     1.35486775     0.15187847    -0.74346304     0.81286434    -2.38261493
O       7.78220658     2.49286535    14.59996205     0.74346304    -0.81286434     2.38261493
O       6.51448429     0.56901423     0.15183062    -0.74447245    -0.81281471    -2.38297051
O       3.01669403     3.27871887    14.60000991     0.74447245     0.81281471     2.38297051
O       7.78219171     0.56899873     7.52779934     0.74385410    -0.81295818    -2.38278231
O       1.74898653     3.27873444     7.22404159    -0.74385410     0.81295818     2.38278231
O       0.34630693     2.34040946     3.98484021    -1.88291930     0.57353799     0.01469515
O       9.18487138     1.50732364    10.76700072     1.88291930    -0.57353799    -0.01469515
O       5.11189350     1.50728788     3.39112710    -1.88317641    -0.57345263    -0.01744237
O       4.41928488     2.34044529    11.36071356     1.88317641     0.57345263     0.01744237
O       0.34629206     0.41654284     3.39107999    -1.88281774     0.57337756    -0.01615888
O       9.18488625     3.43119026    11.36076067     1.88281774    -0.57337756     0.01615888
O       4.41927001     0.41657861    10.76704770     1.88247039     0.57349377    -0.01412590
O       5.11190837     3.43115450     3.98479316    -1.88247039    -0.57349377     0.01412590
