# total energy = -19958.31845384 eV

CRYSTAL
PRIMVEC
        7.60600008     0.00000000     0.00000000
        0.00000000     7.60600008     0.00000000
       -1.89786986    -1.89786986     4.85670466
PRIMCOORD
24 1
Ti      3.63444698     6.87567801     1.31420900     1.56077333    -2.63086017    -1.14037852
Ti      3.66404799     3.03734602     1.19098299     2.37214257     1.27837071    -0.65824790
Ti     -0.01353101     6.54337502     1.37415600    -1.54607458    -2.58542542    -1.18433643
Ti      0.14599000     2.67947001     1.28916003    -2.52660165     1.96163108    -1.18546052
Ti      5.79411824     2.70502525     3.52953981     1.06727766     0.22719356     1.45760700
Ti      5.60430522    -1.14541580     3.65238879     1.20507084    -0.99037182    -0.72250314
Ti      2.04862124     2.93388023     3.57726282    -1.07604152     0.36944889     3.98923876
Ti      1.83516823    -0.87409980     3.66890679    -0.68355091    -0.92781763    -0.16716085
O       3.83469998     4.94023503     0.80550599    -0.19005036    -1.77948764    -0.00065589
O       3.66022601     1.01695501     0.75596399     0.52738179     0.77068332    -0.03797212
O       0.02452599     4.59776701     0.63540800     0.60301082     1.94167314     1.30521046
O       0.01453899     0.66769601     0.77170400    -0.06848264     1.77109093    -0.26502453
O       5.54966222     4.55590523     3.68250479     0.14301381     2.79638451     1.67421353
O      -1.63118279     0.88316524     4.19783480    -0.51625431    -1.91985913    -1.04204613
O       1.77491320     4.75893223     3.77751783     1.38859805     2.67338598     1.60207580
O       1.62530320     1.01330421     3.97724880     1.07774025     0.09130813     1.15047627
O       3.89152520     2.77319423     3.15382783    -0.51793041    -0.68282817    -0.82763353
O       3.78397321    -0.68316275     3.15341883    -0.12833075     0.12392388     1.02536249
O       0.17043624     3.07934825     3.25803680    -1.78993147    -1.65526629    -0.64661263
O      -0.04973880    -0.88769875     3.25899382     0.89637740    -0.50126631     0.23588826
O       5.80938199     6.31484702     1.68673301    -1.80764457     1.38365716    -0.09021464
O       5.91077500     2.91015398     1.63175298    -0.90799879    -1.26741755    -1.18907909
O       1.88675302     6.66576102     1.62847102     0.19789531    -0.03997913     0.25181702
O       1.95013501     3.07958500     1.78576901     0.71961039    -0.40817203    -3.53456393
