# total energy = -39035.33390042 eV

CRYSTAL
PRIMVEC
        7.60600008     0.00000000     0.00000000
        0.00000000     7.60600008     0.00000000
       -3.79573973    -3.79573973     9.71340985
PRIMCOORD
46 1
Ti      1.93460244     4.97600847     6.39064361    -1.24162346     1.96446650    -1.84884292
Ti      3.93677298     6.59520502     1.25355502    -0.77363649     1.67811878    -0.04304465
Ti      1.81463044     0.97275944     5.98796661    -0.14857614    -1.03062966     1.94010786
Ti      3.78180099     2.98070098     1.17146598     1.06628084    -2.42214000    -0.99815353
Ti     -1.88999957     4.81772843     6.19056963    -0.76576994     0.32385396    -1.24965867
Ti      0.12138300     6.43493300     1.29363099    -0.04762585     0.86695677    -1.80078564
Ti     -2.02308754     1.07888647     5.97541765    -0.40144140    -0.35866568    -0.86085785
Ti      0.06903001     2.90024397     1.10801699    -1.15791602    -0.86439415    -0.56605402
Ti      3.76014843     0.91965243     8.29056764    -3.16829010     0.25524302     1.15933553
Ti      5.72231100     2.93149898     3.48422102    -0.22797492     1.19349805     0.51585707
Ti      3.79918446    -2.91525356     8.62607163     0.96768414    -0.20710089     1.42165011
Ti      5.83924902    -0.75692799     3.62781300    -0.65229760    -2.02337563     0.67959630
Ti     -0.27768756     0.88138546     8.28728462     2.28249279    -2.20901089     0.57527940
Ti      1.89489102     2.80326901     3.54176301     0.21288176     0.03952764    -1.31710079
Ti      0.00293646    -3.06171654     8.59333460    -1.27588728     0.92738543     2.25473027
Ti      1.99949402    -0.91080300     3.66686798     0.30460462     0.99872225     1.14568836
O       1.97235543    -0.81552554     5.77355261    -0.42183642    -2.06886978    -0.90799493
O       3.94763302     0.91693098     0.96902202    -0.84973551    -1.00094009    -2.18216574
O      -2.02862454     2.90667544     5.58883160     0.43056995     0.57641429     0.57482972
O       7.36738200     4.68994699     0.51068600     0.44822624     0.42710770     2.23815436
O      -1.89672155    -0.90720555     5.64769061    -0.39650745     0.27694237    -0.51621703
O       0.02776799     0.88860100     0.86747000     0.40723718    -0.33563039    -0.12043257
O       3.93813445     2.69393946     8.90044262    -0.08529432     1.70210461    -0.31819290
O       5.53921202     4.82646102     4.10032198     0.60072434    -0.93092147    -0.40977049
O       3.76306145    -1.00125056     8.87697964    -0.04683086    -0.64451564    -0.06075236
O      -1.54944501     1.05682999     3.99786300    -0.61550664    -0.44911352     0.07666133
O      -0.26864757     2.60298447     8.78236963     0.93546435     2.02131361     1.39440541
O       1.88979197     4.19965803     4.70656898     0.19740140    -0.21694745     0.12984847
O       0.14748244    -0.90216757     8.96046164    -1.01097099     0.47121576     0.72627701
O       1.87619402     1.04835601     4.06767900    -1.13900864    -0.66780316    -1.06814541
O       1.90526644     0.76456445     7.93381661    -0.93120403     1.14837028    -0.50029238
O       3.71505099     2.49075498     3.12230903     1.28765573     1.70690434     0.01303498
O       1.88209144    -2.91993556     8.25332764    -0.68712886    -0.91276227     0.60046697
O       3.82172101    -0.89459298     3.41666302     0.74747782    -0.08487446    -1.19358572
O      -2.08757753     0.64085244     7.99935463     1.38115522     0.16508931    -1.28535074
O       0.02535500     3.05096498     3.06184402    -0.10300126    -0.12714470     0.60826127
O      -1.90841753    -2.79220355     8.25390661    -0.17354079    -0.34396874    -0.56179113
O       0.13289302    -1.21771300     3.26159499    -0.42972457     0.22750415    -0.27298647
O       3.68152645     4.86569342     6.68183361     2.37408401    -0.48600244    -0.68298990
O       5.76839700     6.69568101     1.60237999     0.51623965    -0.83447010     0.92725302
O       3.63579146     1.25675046     6.15565664     1.00288050     0.02726347     0.90836877
O       5.72644102     2.82094602     1.57172200    -0.65228346     0.86974693     0.41771032
O      -0.10793956     4.83413943     6.65679363     1.33011186    -0.39226641    -0.55839393
O       2.05235401     6.44041099     1.54508200    -0.99230941    -0.44232504     0.98473750
O      -0.20558256     0.93586547     6.41316360     1.69510169     0.93270067    -0.33644286
O       1.92489098     3.12552103     1.46855598     0.20764751     0.25342216     0.36774811
