# total energy = -19959.39812490 eV

CRYSTAL
PRIMVEC
        5.93400000     0.00000000     0.00000000
        0.00000000     9.29699974     0.00000000
        0.00000000     0.00000000     4.64899994
PRIMCOORD
24 1
Ti      4.51418998     6.92447699     2.40196300    -0.23580959     0.13636699    -0.62516551
Ti      4.44208100     2.53403998     2.38369501    -0.32420620    -2.50600993     0.66174461
Ti      1.53698701     6.83876102     2.11445301    -0.38586668     0.94416317     1.23469973
Ti      1.47543301     2.53909198     2.38858900     0.48043806    -2.69542985    -0.23849793
Ti      2.98378101     4.66046198     0.01121999     0.07525545     0.68920271     0.01949000
Ti      2.97682502     9.05458201     4.62907102    -1.22151691     1.52525815    -0.01294937
Ti      5.86761202     4.62020201     4.61801302     0.64611641     0.43418312     0.83197021
Ti      5.92408999     0.05389300     0.05769302     1.42062887     0.82522800     0.57975184
O       4.45733401     5.63153901     0.72625598    -0.75287739     0.22895939     0.80227730
O       4.39579498     0.67067999     0.89004502     0.77711339     1.39575678     0.53676606
O       1.49161599     5.56162300     0.76414603    -0.13030356     0.24660282     0.15237983
O       1.47046203     0.90213000     0.98533100    -0.72334620    -0.32773453    -0.94572794
O       4.41624001     8.27545598     3.73464902     0.40554539    -0.00511753    -0.48690181
O       4.45287601     3.68350600     3.92045802    -0.78433948    -0.53075636    -0.94823168
O       1.48441500     8.27052399     3.83245500    -0.46612524     0.18791840    -0.77918827
O       1.45236099     3.78795903     3.72797498     0.69128608     0.15975093     0.58692702
O       2.95306100     5.89895101     2.93763902     0.20875360    -0.52183283     1.82739297
O       3.06408498     1.54949100     3.18027299    -0.52397251    -0.25562534    -0.00150898
O       5.74794901     5.91962501     3.28446598     1.31563243     0.88730371    -1.78401253
O       5.88153203     1.68404299     3.29443800     0.86511946    -1.68727062     0.23979248
O       2.90325499     7.82413298     1.43667999     0.45765293     0.29062501    -0.26042714
O       3.05641101     3.49588102     1.57446102    -0.96826727     0.02760569    -1.22185064
O       0.01434499     7.73633501     1.38778401    -0.43831257     0.51880716     0.19620790
O       0.06459402     3.37401700     1.46247499    -0.38859848     0.03204496    -0.36493712
