# total energy = -19071.85778999 eV

CRYSTAL
PRIMVEC
        5.17600016     0.00000000     0.00000000
        0.00000000     5.50899976     0.00000000
        0.00000000     0.00000000     9.26300011
PRIMCOORD
22 1
Ti      1.96509601     3.44191002     3.31367301     0.04171205     1.75108722     0.19965729
Ti      3.43278002     2.37455702     5.99236100     0.37717506     0.45776709    -0.87051260
Ti      4.50114999     2.19017500     1.29472200     0.33877768     0.92492822     1.10428947
Ti      0.80764900     2.52979101     7.88760001    -0.08423091    -1.31590651    -0.69801466
Ti      1.82403800     0.72692899     1.44900902     1.84279825     0.48313232    -0.74155116
Ti      2.88955301     5.36622599     8.08047199     0.36021220     0.71483996    -0.81273372
Ti      0.48789698     5.28192202     6.23773197     0.37668115     2.12961906    -3.05843325
Ti      4.54926803     4.98146698     3.32133201    -1.75328603    -0.83417570     1.01898333
O       3.85836003     3.51494098     4.24202999    -0.42733627    -1.20495231     2.74656449
O       1.12354602     2.36771200     0.37521599    -0.09615878    -0.84670829    -0.03730903
O       4.94976202     3.83551502     7.02489102    -2.55951203     0.02448051     0.21292136
O       3.55959999     1.08485300     0.14596201     0.10589941    -0.45558654    -0.28638680
O       1.42970802     5.42557999     9.05793699    -0.79111485    -1.15710175    -0.36135814
O       4.27974302     0.51137800     4.99875102     0.42812740    -0.41765632    -1.24147305
O       1.45946202     4.64555098     4.62814200    -2.19935383     0.29985425     0.82556790
O       0.13101799     3.77707300     1.97938602     0.61070253     0.65757325     1.83882127
O       4.63195499     1.24910099     7.02012001    -0.41396859     0.42114814     2.44195293
O       2.89688597     2.15747502     2.49842498     0.41368705    -2.92210713    -2.05862779
O       2.22116700     3.57699500     7.29587703     2.35062140     1.49573416    -0.56750130
O       0.27395400     0.95729398     2.39535898    -0.37683259     0.15464343     0.87426102
O       1.84719299     1.29453700     6.75156801     1.47381679    -1.95016730    -0.19369079
O       2.85281498     4.76446002     2.26796701    -0.01841708     1.58955427    -0.33542727
