# total energy = -19517.82117433 eV

CRYSTAL
PRIMVEC
        5.93400000     0.00000000     0.00000000
        0.00000000     9.29699974     0.00000000
        0.00000000     0.00000000     4.64899994
PRIMCOORD
23 1
Ti      4.39075901     7.01853502     2.20995998     0.52290524     0.24610300     0.03647754
Ti      4.46878101     2.34129997     2.30335500     1.13698595     0.15908964    -0.47455923
Ti      1.38890401     6.96390001     2.31573399    -0.98655425     0.06891125    -0.03579028
Ti      1.51142802     2.28414899     2.38095101    -0.84898089     0.52478883     0.00670775
Ti      3.00291002     4.53966801     0.11538101    -0.63838613    -0.08626928     0.11802473
Ti      2.95680699     0.12572098     0.01582002    -0.29258393    -0.82225581     0.34719007
Ti      5.92929101     4.62639699     0.03152700     0.61673177     0.29515247    -0.43554889
Ti      5.92390103     9.28148702     4.53007699    -0.01742874    -0.42943969    -0.10645734
O       4.37248499     5.57916999     0.90374399     0.03120832    -0.33202750    -0.20367027
O       4.53883000     0.88548499     0.90199702    -0.28255920     0.19421221    -0.34995247
O       1.48866800     5.55063601     1.02959102     0.46072797    -0.08851643    -0.70616506
O       1.50663600     0.97099300     0.94547602     0.37604275    -0.57545218    -0.84383457
O       4.57707698     8.26797997     3.62822798    -0.67542571     1.45784252     1.42513679
O       4.46960600     3.76875100     3.72624399    -0.49787117     0.23746075     0.49997074
O       1.58346100     8.48168799     3.66270002    -0.15829980    -0.44490026     0.12843488
O       1.44329100     3.62604899     3.85071601     0.26119872     0.83215096    -0.01891767
O       3.09185202     1.54568500     3.26870300    -0.83625573    -1.11199790     0.62239514
O       5.88501698     6.04937498     3.26868702     0.75064670    -0.37526113     0.24667404
O       0.03145498     1.34414001     3.10339602    -0.42256019    -0.27693645     1.13035841
O       2.97124501     7.89764898     1.30728900    -0.19397849    -0.43612919     0.84263335
O       2.94743600     3.28218199     1.42155001     0.39886875    -0.73812491     0.50287274
O       5.87689299     7.76098901     1.45915499     0.97645084     1.48980057    -1.63653374
O       5.93300901     3.32098201     1.59057902     0.31911722     0.21179882    -1.09544693
