# total energy = -19077.21533768 eV

CRYSTAL
PRIMVEC
        5.17575250     0.00001323     0.00000000
        0.00001429     5.50856584     0.00000000
        0.00000000     0.00000000     9.26345890
PRIMCOORD
22 1
Ti      1.90861500     3.42035217     3.30636313    -0.00304830    -0.01083489     0.00973189
Ti      3.41773241     2.26908158     5.92586038     0.00438373     0.00454417    -0.00771100
Ti      4.46547910     2.24843284     1.13277189     0.01135065    -0.00033939    -0.00623493
Ti      0.74059466     3.28022448     8.08908693     0.02520582    -0.00787786     0.00546180
Ti      1.80714483     0.62686095     1.24084191     0.01001651    -0.00579475    -0.01713127
Ti      3.19054238     4.98467025     8.13933924     0.02372409     0.00218518     0.00129301
Ti      0.80167217     0.56548880     5.77957160     0.00892302     0.03695834    -0.00277782
Ti      4.46275019     4.93853191     3.50414324     0.00445444     0.00631875    -0.01974659
O       3.47010882     3.49269913     4.52530993    -0.03005929     0.01686516     0.02227476
O       0.95246298     1.95857912     0.13912816    -0.01909610    -0.01386159     0.03813899
O       4.14454710     3.61641865     9.14187296    -0.03139472    -0.00404023    -0.04099934
O       3.56372981     0.82653283     0.07555317    -0.02947899     0.00541706     0.00487507
O       1.54917770     4.74544353     9.10225621    -0.01162139     0.02259666     0.02619415
O       4.29299681     0.82606608     4.72130175     0.01971188     0.00399935    -0.03716454
O       0.94121428     4.59162308     4.59312209    -0.02988883     0.02376163    -0.00121202
O       0.16712516     3.30968468     2.50612855     0.02164330    -0.03398125    -0.01759355
O       5.09703767     2.02037960     6.80755331     0.02255835    -0.02630240     0.02066062
O       2.73399665     2.08741478     2.16968379     0.01648052     0.00655529     0.01790131
O       2.34430674     3.38689103     7.05920776    -0.01813760    -0.00613208     0.01359343
O       0.19616186     0.52508089     2.18558919    -0.00532193     0.02126689    -0.00596830
O       2.46200699     0.65745144     6.68568934    -0.00501571    -0.02816130    -0.00683040
O       2.77391674     4.87313874     2.47004163     0.01460978    -0.01314323     0.00324473
