# total energy = -19073.69593816 eV

CRYSTAL
PRIMVEC
        5.93400000     0.00000000     0.00000000
        0.00000000     9.29699974     0.00000000
        0.00000000     0.00000000     4.64899994
PRIMCOORD
22 1
Ti      4.53208802     6.94122402     2.42079901    -1.08985735    -0.50306634    -0.63352263
Ti      4.44120299     2.43761097     2.13461800    -0.43989894    -1.05078583    -0.66991018
Ti      1.56298200     7.13308501     2.51377397     0.13218098    -0.13657191     0.02075164
Ti      1.56903399     2.25119501     2.31203002     0.43495523     0.68421606    -0.27017985
Ti      2.98008603     4.55866399     4.46210899    -0.28203032     0.65993455     0.78675734
Ti      2.94443599     9.14822198     0.02906501     2.34531155     0.55209164     1.02313669
Ti      5.81033101     4.58060802     4.51803302     0.04890806    -0.04279654    -0.21924370
Ti      0.01453602     9.23335401     0.17515598    -2.30591864     0.02166438     1.92190984
O       4.15370898     5.69444400     0.77826299     1.48720530    -0.96265995     1.21458496
O       4.35016699     0.74411698     1.04920799     1.04806843     1.63839136    -0.71923269
O       1.57007599     0.79613299     1.03669300    -0.93548672     0.76211177    -0.08154951
O       4.49716798     8.19868802     3.98020600    -0.31432673     1.27852472    -0.79997899
O       4.36280898     3.86202500     3.53157000     1.05432958    -0.57608622    -0.76761985
O       1.39580602     8.47346802     3.82313799     0.32316285     0.09694965    -1.13622799
O       1.42178301     3.93115402     3.46840100    -0.33282120    -0.20722405     0.91322507
O       2.94569601     6.17332798     3.36236002    -1.06274635    -0.19998176    -0.91131140
O       3.11798099     1.55557802     3.14038699    -1.07646524    -0.92442943     1.62087494
O       0.09617601     6.31051401     3.35770098     0.00966684    -2.78716788     0.98730012
O       3.01598499     7.91989199     1.60931898    -0.66308261     0.42404886    -1.02982233
O       2.90795398     3.18347202     1.20330599    -0.16736345     0.54527436    -0.21379245
O       5.86039600     7.90809600     1.56041401     1.38443004     0.57481223    -0.99977255
O       5.92542098     3.25584399     1.22045102     0.40177821     0.15275032    -0.03637650
