# total energy = -19515.85854368 eV

CRYSTAL
PRIMVEC
        5.93400000     0.00000000     0.00000000
        0.00000000     9.29699974     0.00000000
        0.00000000     0.00000000     4.64899994
PRIMCOORD
23 1
Ti      4.51721200     7.00554700     2.26874797     1.97603364    -0.15334502     1.11619754
Ti      4.33202600     2.22535200     2.33291998     0.44998796    -0.23174338     0.80269742
Ti      1.37489198     7.32147000     2.09298598    -0.85451185    -1.44248428     0.97469786
Ti      1.42597298     2.21103903     2.31894298    -0.11908454     0.66674155     0.29964573
Ti      3.07483701     4.57315800     0.04639001     0.27895657    -1.60509145     1.09330829
Ti      2.83090302     9.12554801     0.03343998     2.22774139     1.46799555    -1.23297735
Ti      0.16372501     4.68529500     4.63649199    -0.27219457     0.01105858    -0.86361639
Ti      5.82009100     0.27415800     4.61592102    -0.90667107    -1.75125743     1.76024961
O       4.58679003     5.53196801     0.89081301    -1.22505681     0.58102248     0.37545139
O       4.33925398     0.93058698     0.85917102     1.17655884    -0.04722887     1.31987784
O       1.68553601     5.59319498     0.96586998    -0.10659541     0.39819049    -0.83816040
O       1.52050801     0.78000002     1.05267299    -0.53462176    -0.07384108    -0.24295725
O       4.46246301     8.35777400     3.76100999    -0.38630916    -0.97275642     0.54673295
O       4.52382000     3.87082702     3.63056901    -0.28221184     0.15017099     0.16857804
O       1.50239602     8.22132601     3.86679299    -0.63944491    -0.17863054    -0.74054972
O       1.47145497     3.52876700     3.94730202     0.38723888     0.98290096    -1.12441582
O       3.06957598     1.46691903     3.71802799    -0.72450217     0.49535072    -3.91035085
O       0.25767302     6.05963901     3.10018799    -0.81129571     0.02482607     0.46971681
O       5.92329702     1.03140303     3.04956800     0.23959939     2.43728355    -0.67440601
O       3.05475701     7.98164301     1.57264203    -0.45421485    -1.08963238     0.27536345
O       2.98740698     3.10072002     1.42447398    -0.66027291     0.76158469     0.12826776
O       5.74180399     8.13256600     1.49800501     0.52673670    -0.94259994    -0.43746848
O       5.88678803     3.02514298     1.34716701     0.71413317     0.51148517     0.73411784
