# total energy = -19518.03478407 eV

CRYSTAL
PRIMVEC
        5.17600016     0.00000000     0.00000000
        0.00000000     5.50899976     0.00000000
        0.00000000     0.00000000     9.26300011
PRIMCOORD
23 1
Ti      1.89714902     3.33480698     3.40130302    -0.92034086    -1.53797689     3.18879517
Ti      3.34000202     2.22431502     5.78195299    -0.19196686     0.11009416    -2.44679689
Ti      4.39524199     2.03986400     1.52922700     0.65187311    -0.22726838    -0.87501486
Ti      0.77892102     3.37727398     7.77695402     0.58740833    -0.39587136     0.73620070
Ti      1.98592898     0.38569502     1.36944098     0.53135775    -0.80065031    -1.21932170
Ti      3.18862197     5.16429799     7.94712600    -0.51217911     0.05598399     0.77538998
Ti      0.69118402     0.50094501     5.91210799     0.32242700     0.84838671    -3.69614266
Ti      4.49339998     4.92113802     3.37580398     0.66523951     0.20687875     2.85623596
O       1.69982798     1.81913898     4.76044901     0.38435744     1.05786279    -0.71775560
O       3.53517597     3.59277898     4.52133202     0.07433422     0.28140863    -0.36072899
O       0.17999700     2.54362597     9.25633602    -0.00983859     0.13574967     0.14480561
O       3.59213201     0.70550498     0.30796502    -0.37362282     0.03971250    -1.18497792
O       1.66241202     4.81651301     9.06277002     0.01470594    -0.28713371     0.05746726
O       4.27699998     0.80187298     4.71173301     0.06598122    -0.48198381    -0.22079819
O       0.94797702     4.64039198     4.50974002     0.04472050     0.13954925     0.36643839
O       0.17933103     3.37533698     2.50261701     0.01851786    -0.02399380    -0.32094836
O       5.11189298     2.16950200     6.54838400    -0.17176235     0.42600598     1.35954561
O       2.64873899     1.90337998     2.34387601     0.20786014     0.89747474    -0.98626345
O       2.52129099     3.41087700     7.04949702     0.47722418     0.67253502     1.20319265
O       0.25434301     0.64248003     2.14389802     0.10211449    -0.15834736     0.03554320
O       5.07249298     4.88706203     7.21354303    -1.81323415     0.15899374     0.54001645
O       2.45404500     0.79398702     6.73490199    -0.12407583    -1.24223872     1.76642335
O       2.84187202     4.65452699     2.41562302    -0.03110110     0.12482813    -1.00130621
