# total energy = -19517.13118707 eV

CRYSTAL
PRIMVEC
        5.17600016     0.00000000     0.00000000
        0.00000000     5.50899976     0.00000000
        0.00000000     0.00000000     9.26300011
PRIMCOORD
23 1
Ti      1.96990200     3.22260600     3.39018601    -0.86492945    -0.89273851     2.52355077
Ti      3.25718302     2.26009100     5.99390800     0.21485200     0.45505792    -2.87081412
Ti      4.43784801     2.08307402     1.47024602    -0.45837181    -0.08552058    -1.67851653
Ti      0.84119497     3.40302697     7.74731999    -0.76751212     0.62408976     1.28038182
Ti      2.02173200     0.19673201     1.42545000     0.07058812     0.76629110    -2.49514959
Ti      3.21205601     5.21851098     7.84974002     0.32192332    -0.39967428     2.46857748
Ti      0.72654301     0.59536103     5.89810400    -0.92746333    -1.09318822    -3.43507660
Ti      4.53834602     4.86890902     3.36254200     0.67741291     0.53139760     3.44159666
O       1.58106600     1.92256800     4.84485898     1.03453722     0.19777756    -0.39855919
O       3.48759199     3.50535102     4.40914501     0.97540388    -0.20968382     0.50449099
O       4.90990698     2.94470899     9.16923900     0.38861853    -0.14256078     0.35613392
O       3.42328499     0.82634102     0.22338101     0.06954785    -0.34395408    -0.42303662
O       1.89102099     4.52772400     9.07375701    -0.48612920    -0.34418008    -0.03387661
O       4.23313701     0.64871601     4.88785299    -0.55690527     0.24195401    -0.44552246
O       1.03873901     4.77603302     4.40212098    -0.17930237    -0.56507109    -0.23333361
O       0.18204502     3.27401203     2.58093699     0.61066937     0.39410887    -0.33590987
O       5.05654501     2.08970202     6.70395200    -1.18036407     0.90422029     0.76615766
O       2.79617502     1.71635402     2.29954800    -1.01758619     1.11604816     0.99556211
O       2.49582502     3.89655001     6.69817900    -0.23710208    -1.23591484     0.48657323
O       0.25387802     0.65704399     2.14391601     0.56288514    -0.57281783    -0.84102924
O       4.94503202     4.83448498     7.19792801     0.95930774     0.04018430    -0.00331981
O       2.22365699     0.99406999     7.09125403    -0.10651853     1.42445750     0.02852897
O       2.93545802     4.44259002     2.22621202     0.89643833    -0.81028269     0.34259037
