# total energy = -19073.63062292 eV

CRYSTAL
PRIMVEC
        5.17600016     0.00000000     0.00000000
        0.00000000     5.50899976     0.00000000
        0.00000000     0.00000000     9.26300011
PRIMCOORD
22 1
Ti      1.81297301     3.28924101     3.16787600     0.17293915     0.17252340     1.71015499
Ti      3.48628598     2.25087798     6.01787502     0.83786678    -0.25179388    -0.32599492
Ti      4.51473498     2.16783498     1.27829300    -1.19396342    -1.03282975    -1.77349414
Ti      0.68246402     3.32691001     8.07187101     0.99811522     1.34028701     1.73813863
Ti      1.83316101     0.55327402     1.33430599    -0.45601205    -1.13614263    -2.96916605
Ti      3.26053298     4.99353101     7.99085101    -0.01109251     1.28608865     2.15780350
Ti      0.61794901     0.46975202     5.94584500     0.75991245     0.12768874    -1.06558279
Ti      4.42606201     4.86325598     3.47101498    -0.71594477     1.05840504     1.08523579
O       3.33087699     3.45286102     4.58901098    -0.87240211     0.06095574    -0.25573179
O       0.83382898     2.09048298     0.22811101     0.84609020    -1.29522147    -0.25068317
O       4.46268600     3.95520899     9.11488101    -1.00148850    -0.63246899    -0.26027107
O       3.36838798     0.90077298     0.11597502     0.62905945     0.81757434    -0.37017600
O       1.59936701     4.84415898     9.13026102    -0.07752470     0.09451636    -0.97546327
O       4.61200903     1.01835500     4.61668002    -1.70110445     0.08713420     0.62387044
O       0.83567798     4.72579902     4.34362202     1.70486443    -1.34050272     1.36237973
O       0.01899000     3.38731602     2.50151902     0.49005476    -0.40296658     0.23945593
O       0.26056799     2.43484401     6.48151197    -0.85561280    -1.28160104     0.02652377
O       2.75311698     1.91939097     2.21427902    -0.30848904     0.38025267     1.74522691
O       2.58985702     3.36113000     7.51303798    -0.24075999    -1.84852924    -2.26313598
O       5.15146300     0.51001601     2.13053899     0.76154098     0.79306761    -0.75849860
O       2.54894299     0.48308999     6.40425098    -0.58979149     1.25910697     0.20157071
O       2.62063698     4.49125099     2.19243098     0.82374319     1.74445583     0.37783738
