# total energy = -4986.02581220 eV

CRYSTAL
PRIMVEC
        3.82718858     0.00000000     0.00000000
        0.00000000     3.99775381     0.00000000
        0.00000000    -0.00006987     5.20540814
PRIMCOORD
6 1
Ti      1.91359412     1.99884191     2.60270401     0.00000000     0.00000000     0.00000000
Ti      0.00000000     0.00000000     0.00000000     0.00000000     0.00000000     0.00000000
O       1.91359412     0.77908971     1.01445735     0.00000000     0.41252054     0.85737349
O       1.91359412     3.21859412     4.19095061     0.00000000    -0.41252054    -0.85737349
O       0.00000000     1.21972425     3.61716251     0.00000000    -0.41290107     0.85757147
O       0.00000000     2.77795958     1.58824552     0.00000000     0.41290107    -0.85757147
