# total energy = -19959.59500697 eV

CRYSTAL
PRIMVEC
        7.60600008     0.00000000     0.00000000
        0.00000000     7.60600008     0.00000000
       -1.89786986    -1.89786986     4.85670466
PRIMCOORD
24 1
Ti      3.94542598     6.77083699     1.13048998    -2.00209949     0.68935724     0.46814252
Ti      3.90281298     2.97192098     1.21656903    -0.30997745    -0.87224810     0.04608627
Ti     -0.04528101     6.56922099     1.19262201     1.77300923     1.14181988     0.11384438
Ti      0.09360701     2.78333702     1.30654498    -0.92104174    -1.99206036    -0.39339641
Ti      5.65758924     2.65383724     3.69436180    -0.16583622    -0.06059424    -0.58218847
Ti      5.72153423    -1.03816480     3.71409080    -0.93306217     0.15504709    -0.61471371
Ti      1.92725524     2.91133124     3.61337583     0.13667732     0.71778671    -0.02611548
Ti      1.88263824    -0.71098678     3.63470982     0.65369165    -1.60519249    -1.23219908
O       3.76597700     4.85743101     0.62967002     0.33968451     0.42341225     1.62765212
O       3.75262798     0.96252098     0.71009200     0.64416571     1.81361725     0.17241593
O      -0.05845498     4.50892101     0.75369398    -0.13582500     1.73620696     1.67763618
O      -0.28266299     0.83526798     0.72605500     0.55016126     1.00109667     1.19476226
O       5.61170222     4.67579023     4.10946781    -0.14183239    -1.24879350    -0.21982015
O       5.61040520     0.81895424     3.98739683     0.26798284     0.41121931     1.30957671
O       2.04384420     4.97027721     3.96603183    -0.16620594    -2.52128640    -0.51895988
O       1.81818122     1.09535420     4.19102783     0.25438350    -0.85888890    -1.42199155
O       3.77583822     2.58767924     3.08873379    -1.41220979     0.94228395     1.88004892
O       3.70850825    -0.67528177     3.12420179     0.27581982    -0.69184735    -0.06945504
O      -0.11315879     2.55787121     3.36976279     2.28814948     1.40433244    -1.82041165
O      -0.08316777    -0.93604978     3.28897181     1.14515975    -0.20791799    -0.57917617
O       5.69222400     6.63558399     1.71082502     0.15084539    -0.73277573    -0.75296558
O       5.63024602     2.68906399     1.77625398     1.42742044     0.91463506    -1.73476174
O       1.86614601     6.92642098     1.46554798    -1.60990713    -1.23053917     0.83961256
O       1.95945398     2.70922803     1.54371598    -2.10915332     0.67132917     0.63637655
