# total energy = -19933.41330710 eV

CRYSTAL
PRIMVEC
        6.87469320     0.00000000     0.00000000
        0.00002904     5.40803451     0.00000000
        0.00000000     0.00000000    10.94557063
PRIMCOORD
24 1
Ti      2.49176286     3.20479628     4.06072864     0.45586602    -0.52458674     0.82449627
Ti      4.38295944     2.20323841     6.88484205    -0.45586602     0.52458674    -0.82449627
Ti      5.92899073     2.20324029     1.41201298     0.45517259     0.52452761    -0.82490302
Ti      0.94573157     3.20479465     9.53355783    -0.45517259    -0.52452761     0.82490302
Ti      2.49174846     0.50077915     1.41205686     0.45586602    -0.52458674    -0.82449627
Ti      4.38297384     4.90725572     9.53351395    -0.45586602     0.52458674     0.82449627
Ti      0.94571717     0.50077709     6.88479817    -0.45517259    -0.52452761    -0.82490302
Ti      5.92900513     4.90725779     4.06077252     0.45517259     0.52452761     0.82490302
O       2.17589407     1.90426092     5.58544091     0.86883007     1.20006902    -0.92981795
O       4.69882830     3.50377377     5.36012978    -0.86883007    -1.20006902     0.92981795
O       1.26151325     1.90428274     0.11269080    -0.86873623     1.20006747    -0.93027278
O       5.61320919     3.50375202    10.83287958     0.86873623    -1.20006747     0.93027278
O       4.69881390     0.79975646     0.11265529    -0.86883007    -1.20006902    -0.92981795
O       2.17590847     4.60827824    10.83291509     0.86883007     1.20006902     0.92981795
O       5.61319479     0.79973470     5.58547642     0.86873623    -1.20006747    -0.93027278
O       1.26152752     4.60830005     5.36009426    -0.86873623     1.20006747     0.93027278
O       0.24979118     3.28947315     2.95667170    -1.26244040     0.24150638     0.13108106
O       6.62493119     2.11856155     7.98889899     1.26244040    -0.24150638    -0.13108106
O       3.68714519     2.11851111     2.51614846    -1.26174312    -0.24126932    -0.13118519
O       3.18757717     3.28952365     8.42942205     1.26174312     0.24126932     0.13118519
O       0.24977678     0.58545589     2.51611350    -1.26244040     0.24150638    -0.13108106
O       6.62494559     4.82257886     8.42945701     1.26244040    -0.24150638     0.13108106
O       3.18756278     0.58550633     7.98893389     1.26174312     0.24126932    -0.13118519
O       3.68715959     4.82252836     2.95663674    -1.26174312    -0.24126932     0.13118519
