# total energy = -19072.74806537 eV

CRYSTAL
PRIMVEC
        5.93400000     0.00000000     0.00000000
        0.00000000     9.29699974     0.00000000
        0.00000000     0.00000000     4.64899994
PRIMCOORD
22 1
Ti      4.50756701     6.92488202     2.37047399    -2.62047034    -1.41897179     0.78491823
Ti      4.43224302     2.47917298     2.24516101    -1.06685394    -1.27010512     0.18129575
Ti      1.39449800     7.07690602     2.27798799     2.70070807    -0.39705792     1.61078516
Ti      1.55738002     2.33649102     2.08909198     0.59584952    -0.63255846     0.87243630
Ti      3.05455502     4.61261800     4.62496101    -0.78119270     2.12059808    -0.32461115
Ti      2.99292498     0.04710699     0.17767899     0.46008417     0.08029764    -0.83788272
Ti      5.91386999     4.54741702     4.56953297     0.08772427     0.90797796    -0.11490599
Ti      5.90869702     8.98081300     0.09629301     0.01247603     0.66914887    -0.57625411
O       4.50621199     5.69542801     0.77187699    -0.35326045    -0.20756524     2.06360827
O       4.54469101     1.07898199     0.88517003     0.01656588    -1.89995210    -0.67852620
O       1.32325597     0.81857000     0.91128101     0.70080456     1.15330243     0.44036097
O       4.44431900     8.09010598     4.09560500    -0.67230207     2.09362540    -0.77033905
O       4.37656902     3.84635802     3.69235098     1.12808916    -1.27006244    -1.59845106
O       1.43456698     8.24193302     3.78085598     0.26971679     2.00418054     1.37299017
O       1.49658100     3.90786398     3.74124903     0.06776942    -0.40861195    -0.73427443
O       2.95397499     6.26286398     3.39355401    -0.35533404    -1.88255395    -1.06376810
O       2.93556402     1.41690998     3.15873002    -0.35614086     0.30983373     0.07937333
O       0.06198798     6.27551200     3.36936500    -0.46546215    -2.45851187    -0.54907805
O       2.90270100     7.92736699     1.49699598     0.45050989     0.44445160    -0.16229966
O       2.98636000     2.94285698     1.04764999    -0.33931401     1.87558291     0.61789957
O       5.86272702     8.06860901     1.72121002    -0.24290198     0.45418940    -0.90234647
O       5.87229301     3.37821798     1.39780001     0.76293478    -0.26723722     0.28906949
