# total energy = -4984.80008480 eV

CRYSTAL
PRIMVEC
        4.26427983     0.00000000     0.00000000
       -0.00000731     3.15185918     0.00000000
       -2.13216601    -1.57597082     4.84124983
PRIMCOORD
6 1
Ti     -0.00018415     2.36401045     1.21031217    -0.00455677    -0.01011421    10.08568168
Ti      2.13229045    -0.78812209     3.63093693     0.00455677     0.01011421   -10.08568168
O       0.00004448     0.78795733     0.78859990     0.00304187     0.00460562    -3.45232768
O       2.13206166     0.78793098     4.05264920    -0.00304187    -0.00460562     3.45232768
O      -0.00001909    -0.78795430     3.20922466    -0.00147633    -0.00012753    -0.35097911
O       2.13212518     2.36384251     1.63202450     0.00147633     0.00012753     0.35097911
