# total energy = -19942.12641708 eV

CRYSTAL
PRIMVEC
        5.53546725     0.00000000     0.00000000
        0.00002339     4.35452129     0.00000000
        0.00000000     0.00000000     8.81331661
PRIMCOORD
24 1
Ti      2.00635451     2.58048532     3.26967760    -0.59745286     2.17749147    -3.98725412
Ti      3.52913618     1.77403612     5.54363906     0.59745286    -2.17749147     3.98725412
Ti      4.77399254     1.77403764     1.13694551    -0.59472415    -2.17814608     3.98766524
Ti      0.76149815     2.58048400     7.67637124     0.59472415     2.17814608    -3.98766524
Ti      2.00634292     0.40322477     1.13698085    -0.59794549     2.17771310     3.98531654
Ti      3.52914777     3.95129682     7.67633591     0.59794549    -2.17771310    -3.98531654
Ti      0.76148656     0.40322311     5.54360372     0.59481928     2.17771387     3.99013299
Ti      4.77400413     3.95129848     3.26971294    -0.59481928    -2.17771387    -3.99013299
O       1.75201860     1.53330100     4.49736801     0.89916653    -2.46026587     2.83208301
O       3.78347214     2.82122044     4.31594865    -0.89916653     2.46026587    -2.83208301
O       1.01576391     1.53331857     0.09073805    -0.89918890    -2.46057338     2.83186884
O       4.51972688     2.82120292     8.72257836     0.89918890     2.46057338    -2.83186884
O       3.78346054     0.64395974     0.09070946    -0.89923929     2.46018823     2.83177679
O       1.75203020     3.71056170     8.72260695     0.89923929    -2.46018823    -2.83177679
O       4.51971528     0.64394223     4.49739660     0.89925395     2.46083383     2.83216529
O       1.01577541     3.71057926     4.31592006    -0.89925395    -2.46083383    -2.83216529
O       0.20113056     2.64866669     2.38069669     2.07076031    -0.78428420     1.03188924
O       5.33436018     1.70585475     6.43261997    -2.07076031     0.78428420    -1.03188924
O       2.96887016     1.70581414     2.02598967     2.07227135     0.78451766    -1.03101198
O       2.56662058     2.64870735     6.78732684    -2.07227135    -0.78451766     1.03101198
O       0.20111897     0.47140604     2.02596152     2.07050474    -0.78406926    -1.03124801
O       5.33437177     3.88311545     6.78735499    -2.07050474     0.78406926     1.03124801
O       2.56660899     0.47144666     6.43264807    -2.07218342    -0.78450994    -1.03208799
O       2.96888175     3.88307478     2.38066854     2.07218342     0.78450994     1.03208799
