# total energy = -19514.63376895 eV

CRYSTAL
PRIMVEC
        5.17600016     0.00000000     0.00000000
        0.00000000     5.50899976     0.00000000
        0.00000000     0.00000000     9.26300011
PRIMCOORD
23 1
Ti      1.92726302     3.11146603     3.22457697    -0.99358159    -0.75183429     4.39788670
Ti      3.31996800     2.26606801     6.02532599    -0.70516001     0.27557454    -4.07177300
Ti      4.53055801     1.84923101     1.62463501    -0.35936322     2.38145922    -3.18996322
Ti      0.90802599     3.50702501     7.68296399    -0.79912616    -1.37558261     3.03913197
Ti      2.08217801     0.09119899     1.34495102    -0.62008089     2.37257168    -1.86128757
Ti      3.15008898     5.44196898     7.73697801     1.44855929    -1.09492140     1.69580977
Ti      0.68607899     0.64665502     5.97952898    -0.41258225    -0.61468440    -4.22021646
Ti      4.36073598     4.77104102     3.43249902     2.51596216     0.22433166     3.89707496
O       1.55713501     1.95812500     4.78649300     0.17301782    -0.31289000     0.19364991
O       3.60607800     3.29270399     4.50792801     0.17460805     1.76838561    -2.61117811
O       0.17071200     2.70853602     0.17801703     0.73053321    -0.30193196    -1.14337668
O       3.47690499     1.03475801     0.28938201    -0.55642704    -1.45537991    -1.26569388
O       1.86490800     4.89045998     8.89761401    -0.77849844    -1.45999864     0.35765035
O       4.14451802     0.55969702     5.03677400    -1.40603168     0.70196233     0.13593736
O       0.86534398     4.89370802     4.46861501     0.86958238    -0.74539188     0.09104588
O       0.27383298     3.39270299     2.50542202    -0.34555742    -0.56571644     0.59933774
O       5.01251799     2.33254601     6.61927798     0.75206955     0.26269331     1.46086253
O       2.52606798     1.73576599     2.27536698     1.18211165    -0.74165247     0.18465361
O       2.48939398     3.83775900     6.68005901    -0.00242378     1.48118351     1.27679591
O       0.26392398     0.35695202     1.99488599     0.33571138    -0.33849357     0.48631354
O       4.97426800     4.90052302     7.42849901    -0.47111549     0.99412435    -0.59940227
O       2.17949302     1.36157799     7.20412102    -1.41744584     0.08039740     0.08319604
O       2.99165998     4.29006600     2.07423999     0.68523833    -0.78420578     1.06354544
