# total energy = -19076.01915886 eV

CRYSTAL
PRIMVEC
        7.60600008     0.00000000     0.00000000
        0.00000000     7.60600008     0.00000000
       -1.89786986    -1.89786986     4.85670466
PRIMCOORD
22 1
Ti      3.93939802     6.60697900     1.17606601    -0.59635783     0.95230277    -0.74097344
Ti      3.74819400     2.86728798     1.23577800     0.08081083    -0.98143775     0.91628006
Ti     -0.01760599     6.68652101     1.13924702     0.72826884    -0.44758655    -1.05233183
Ti     -0.11894502     2.83330099     1.06145902     0.13956776     0.11214770     0.82598237
Ti      5.75505321     2.77199623     3.64138180    -0.89102153     1.28156890    -0.41415936
Ti     -1.35016877    -1.00684878     3.70986982    -2.34405814    -0.48893581     0.21381945
Ti      1.85083723     2.89669521     3.62834382     0.76691099    -0.65734365    -0.62865861
Ti      1.54766925    -0.85743876     3.67985483     0.71591468    -0.48435256     0.55928868
O       3.72435599     4.73103200     0.92853499    -0.10694842     1.08324962    -0.68514808
O       3.64846002     0.94741402     0.88108298     0.51127819    -0.67510201    -0.14248185
O      -0.00395698     4.74894899     0.70640300     0.05427935    -1.14093799     0.61104500
O       7.21483602     0.86611001     0.63428000     1.29760822     1.52368464     0.76041098
O       5.55577321     4.70719621     4.07583283     1.26470400     1.14794348    -1.17982774
O       5.59154522     0.87779324     3.92679180     1.06297826    -0.73259549     0.49431096
O       2.14198621     4.75228524     4.13216782    -0.59652624     0.65449846     0.07862359
O       2.04592625     0.93593220     4.06104581    -0.79282849     0.14710367     0.03631556
O       3.80779523     2.84525822     3.21250480    -0.86802532    -0.09339201    -0.26805689
O      -0.00793877     3.01258624     3.24332483     0.42993335    -0.50361270     0.12001965
O       5.83228499     6.54853100     1.82411499    -1.38898295    -0.00650052     0.69861990
O       5.69611800     2.95865302     1.69059299     0.14963723    -0.39256955    -1.04020316
O       1.83046501     6.73705500     1.76336798     0.43885431    -0.35513453     0.68962052
O       1.80446500     2.79614698     1.62312098    -0.05599685     0.05700266     0.14750501
