# total energy = -19906.91716663 eV

CRYSTAL
PRIMVEC
        6.62496321     0.00000000     0.00000000
        0.00003631     7.05096427     0.00000000
        0.00000000     0.00000000    11.85722740
PRIMCOORD
24 1
Ti      2.40125204     4.17839490     4.39894688     0.06673969    -0.93563970     0.61888353
Ti      4.22374748     2.87256943     7.45828086    -0.06673969     0.93563970    -0.61888353
Ti      5.71361766     2.87257186     1.52961961     0.06698060     0.93566798    -0.61877889
Ti      0.91138186     4.17839275    10.32760826    -0.06698060    -0.93566798     0.61877889
Ti      2.40123402     0.65291290     1.52966716     0.06673969    -0.93563970    -0.61888353
Ti      4.22376550     6.39805164    10.32756071    -0.06673969     0.93563970     0.61888353
Ti      0.91136384     0.65291028     7.45823331    -0.06698060    -0.93566798    -0.61877889
Ti      5.71363568     6.39805426     4.39899443     0.06698060     0.93566798     0.61877889
O       2.09685547     2.48276445     6.05065250     1.40617644     1.30612038    -0.00807635
O       4.52814405     4.56819996     5.80657523    -1.40617644    -1.30612038     0.00807635
O       1.21569044     2.48279285     0.12207681    -1.40549252     1.30631784    -0.00894101
O       5.40930914     4.56817156    11.73515059     1.40549252    -1.30631784     0.00894101
O       4.52812603     1.04271775     0.12203833    -1.40617644    -1.30612038    -0.00807635
O       2.09687349     6.00824658    11.73518906     1.40617644     1.30612038     0.00807635
O       5.40929112     1.04268935     6.05069098     1.40549252    -1.30631784    -0.00894101
O       1.21570833     6.00827505     5.80653676    -1.40549252     1.30631784     0.00894101
O       0.24072230     4.28879618     3.20293301     0.49500928    -0.28538330     0.32783557
O       6.38427722     2.76216816     8.65429473    -0.49500928     0.28538330    -0.32783557
O       3.55320921     2.76210244     2.72571856     0.49512395     0.28581139    -0.32821584
O       3.07179031     4.28886190     9.13150897    -0.49512395    -0.28581139     0.32821584
O       0.24070428     0.76331398     2.72568069     0.49500928    -0.28538330    -0.32783557
O       6.38429524     6.28765036     9.13154684    -0.49500928     0.28538330     0.32783557
O       3.07177229     0.76337969     8.65433253    -0.49512395    -0.28581139    -0.32821584
O       3.55322723     6.28758464     3.20289514     0.49512395     0.28581139     0.32821584
