# total energy = -19517.50380537 eV

CRYSTAL
PRIMVEC
        5.93400000     0.00000000     0.00000000
        0.00000000     9.29699974     0.00000000
        0.00000000     0.00000000     4.64899994
PRIMCOORD
23 1
Ti      4.52665602     7.11662400     2.16486101    -0.19328789     0.60409814     0.19334780
Ti      4.46766201     2.32532200     2.31354500    -0.03081160    -1.21297519     0.31906374
Ti      1.38122501     7.00573200     2.20736997    -0.45964194     0.40983142     0.71594734
Ti      1.42783399     2.40946102     2.42964802    -0.30017898    -1.57180542     0.36847933
Ti      3.00408199     4.52087401     0.23318698    -1.41279549    -0.74783391    -0.60153860
Ti      3.02009098     0.03660901     4.61594198    -0.64110558     0.81428256     0.53957320
Ti      5.88350803     4.63101501     0.04655701     0.53921247     0.25461207    -1.17145211
Ti      0.05225303     9.27684301     4.56053601     0.98043579     1.45748128     0.05609352
O       4.38145100     5.41933099     1.06932302     0.00804216     1.15354154    -0.15981418
O       4.53792601     0.81997200     0.91446200    -0.25619098     0.41061073     0.42707068
O       1.40210698     5.55360602     1.00837498     1.27054427    -0.20131720    -0.34512111
O       1.43572498     0.83399700     0.93535101     0.54410734     0.54705974     0.10401350
O       4.47783000     8.45296399     3.55151998    -0.01105678    -0.88773874     0.02205904
O       4.46884801     3.60387302     3.70133700    -0.76216165     1.67543326     1.25665362
O       1.66185798     8.41165102     3.76540099    -1.45151888    -1.69947385    -1.76089676
O       1.46549099     3.79075800     3.84556198     0.59442462    -0.14788554    -0.95353690
O       2.97180901     1.40394598     3.30768902    -0.07925763     0.90952680    -0.93132179
O       5.87870400     5.99515601     3.25839299     0.02636153     1.17597957    -0.45672451
O       0.03693599     1.43105499     3.29332001    -0.48473592     0.42405632    -0.79561994
O       2.89874698     7.86584702     1.33338300     1.08204428    -1.39209630     1.11263322
O       2.82367001     3.30277498     1.53829699     1.31484902    -0.39999155    -0.43032981
O       0.04522402     7.82863300     1.16200598    -0.36742389    -1.12702395     1.46937906
O       5.92406200     3.19536798     1.32427702     0.09014600    -0.44837202     1.02204217
