# total energy = -19518.85517324 eV

CRYSTAL
PRIMVEC
        7.60600008     0.00000000     0.00000000
        0.00000000     7.60600008     0.00000000
       -1.89786986    -1.89786986     4.85670466
PRIMCOORD
23 1
Ti      3.87694103     6.62067998     1.23727700     0.51725113    -0.57875914     0.15936346
Ti      3.72949902     2.86560498     1.24267001     0.55496974     0.57927644    -0.03747436
Ti      0.11424000     6.63645401     1.18860100    -0.90313580    -0.96785898    -0.14372472
Ti      0.01035399     2.79484102     1.08967603    -1.14529036     1.35418511     0.54129095
Ti      5.54066123     2.83294321     3.64239782    -0.25471054     0.53508893     1.06346985
Ti      5.70009022    -1.00520875     3.61979179    -0.22463197     0.24343522    -0.41397245
Ti      1.93798923     2.90008723     3.57424381     0.06258016    -0.72151275     2.39263966
Ti      1.83437225    -0.96495080     3.67231580     0.86346341     0.57187115     0.10476092
O       3.98013202     4.71820903     0.78778099    -0.52992153     0.17548068     0.40311724
O       4.04430402     0.99566800     0.78530999    -0.72109700    -0.32877505     0.13403474
O      -0.10579402     4.68224799     0.73733399     0.78485704     1.64521147     0.76648625
O      -0.14455800     0.95257398     0.77198102     0.62467263    -0.87837813     0.07571799
O       5.77763125     4.73851425     4.11457479     0.29082479     0.45355331    -0.56632348
O       5.62442020     1.01913924     4.07482083     0.52715013    -1.77328948    -1.62015426
O       1.79411223     4.69963723     4.12185881    -0.43116439     0.98082043    -0.44775624
O       1.78351720     0.99858922     4.06828379    -0.26473065    -0.17758436    -0.46611315
O       3.74992420     3.03903420     3.25660680     0.13919263    -0.55715749    -0.83708671
O       3.78503220    -0.82045175     3.20807680     0.41026183    -0.46259897    -0.21757866
O       0.01804621    -0.92916879     3.24778679     0.13298033     0.14264768     0.25389730
O       5.82308101     6.55725200     1.64310298    -1.35905864     0.19113382     0.34377128
O       5.87902701     3.05662802     1.86440099     0.19392836    -0.88204015    -1.12916362
O       1.94636102     6.39915400     1.57817097    -0.16342992     0.81016056     0.62813590
O       1.76740598     2.95407998     1.67245999     0.89503862    -0.35490956    -0.98733792
