# total energy = -19519.01145971 eV

CRYSTAL
PRIMVEC
        7.60600008     0.00000000     0.00000000
        0.00000000     7.60600008     0.00000000
       -1.89786986    -1.89786986     4.85670466
PRIMCOORD
23 1
Ti      3.79248301     6.63437303     1.13448702     0.24779916     0.49601561     1.41913583
Ti      3.82045702     2.77599501     1.17456002     0.27931987    -0.21386624     1.23939148
Ti     -0.02245199     6.71711899     1.19819202    -0.28962948     0.25370061    -0.63749087
Ti      0.01274899     2.87796799     1.12880403     0.07634379    -0.52807522     0.77240287
Ti      5.61471223     2.90055322     3.68193879    -0.70053923     0.04707229     0.52231466
Ti      5.70457923    -0.91799579     3.57444479    -1.13442307    -0.05551297     0.47844597
Ti      1.93861921     2.79314522     3.74097883     1.12056302    -0.09289708    -0.01047931
Ti      1.86812524    -1.00418278     3.57351682     1.01424401     0.45510394     0.09573635
O       3.90587803     4.70311599     0.82381102    -0.73904382    -0.31401049     0.76356187
O       3.97726700     0.89329702     0.72299202    -0.52857581     0.64273438     0.36537806
O       0.00430502     4.72595999     0.86915501     0.48251268     1.40197988    -0.12620522
O      -0.05529500     1.00654403     0.74628100     0.08216760    -0.90653943     0.13628652
O       5.54230925     4.80112422     4.03109480     0.84056233    -0.49792542     0.29408083
O       5.72990020     0.98591823     4.10931583     0.43551521     0.07092236    -1.06784896
O       1.91021324     4.72262723     4.06683480    -0.52933892    -0.20448685    -0.87604665
O       1.97137020     0.88499524     4.11952784    -0.88179075     0.35688853    -0.02548041
O       3.82319821     2.71663921     3.36199780    -0.50129511     0.20203505    -0.62712006
O       3.79037022    -0.87446276     3.19952583    -0.34200930    -0.26495794    -0.64265313
O      -0.04638778    -0.87561880     3.23179379     0.98544122    -0.27406941    -0.21689989
O       5.72214998     6.64033400     1.56900499    -0.41829344    -0.00775471     0.39917343
O       5.78968998     2.81568198     1.82485902     0.19257596     0.16228192    -0.88438577
O       1.86575902     6.85899099     1.54542099     0.44334654    -0.86015671     0.50327512
O       1.83641201     2.76717299     1.89059997    -0.13545296     0.13151763    -1.87457273
