# total energy = -19923.86946748 eV

CRYSTAL
PRIMVEC
        4.80321461     0.00000000     0.00000000
        1.96620438     4.71882696     0.00000000
        0.00000000     0.00000000     8.78098727
PRIMCOORD
24 1
Ti      2.90610521     2.79637258     3.25768364     5.04200022    -3.85366341     1.25673332
Ti      3.86331386     1.92245452     5.52330372    -5.04200022     3.85366341    -1.25673332
Ti      4.94349654     1.92245612     1.13277493   -10.24412134     2.56396724     2.90573177
Ti      1.82592256     2.79637116     7.64821248    10.24412134    -2.56396724    -2.90573177
Ti      1.92300311     0.43695908     1.13281013     5.04212183    -3.85343406    -1.25652352
Ti      4.84641598     4.28186816     7.64817728    -5.04212183     3.85343406     1.25652352
Ti      0.84282035     0.43695734     5.52326847    10.24377450    -2.56324219     2.90692991
Ti      5.92659874     4.28186990     3.25771885   -10.24377450     2.56324219    -2.90692991
O       2.21258173     1.66157924     4.48087060    -2.26009051    -0.61663793    -1.29740176
O       4.55683729     3.05724786     4.30011676     2.26009051     0.61663793     1.29740176
O       1.57372958     1.66159831     0.09040519     2.30337144    -0.24460173    -2.24835007
O       5.19568954     3.05722887     8.69058188    -2.30337144     0.24460173     2.24835007
O       3.57373518     0.69783427     0.09037668     2.25970587     0.61636102    -1.29764010
O       3.19568389     4.02099282     8.69061039    -2.25970587    -0.61636102     1.29764010
O       4.21258737     0.69781524     4.48089906    -2.30365427     0.24483082    -2.24783251
O       2.55683160     4.02101192     4.30008825     2.30365427    -0.24483082     2.24783251
O       1.37046888     2.87025819     2.37196374    -0.22860021    -4.32297604    -4.06753839
O       5.39895014     1.84856891     6.40902362     0.22860021     4.32297604     4.06753839
O       3.34635785     1.84852500     2.01855787     2.56349442    -3.93087701    -4.88568994
O       3.42306117     2.87030211     6.76242935    -2.56349442     3.93087701     4.88568994
O       0.38736676     0.51084455     2.01852979    -0.22838681    -4.32289068     4.06644901
O       6.38205231     4.20798254     6.76245738     0.22838681     4.32289068    -4.06644901
O       2.43995906     0.51088851     6.40905160    -2.56403641     3.93121408    -4.88526905
O       4.32945996     4.20793859     2.37193572     2.56403641    -3.93121408     4.88526905
