# total energy = -4990.11925395 eV

CRYSTAL
PRIMVEC
        3.01507665     0.00000000     0.00000000
        0.47123890     4.70061116     0.00000000
       -0.00000314    -0.00006130     4.73010405
PRIMCOORD
6 1
Ti      1.74315626     2.35027493     2.36505203     0.00000000     0.00000000     0.00000000
Ti      0.00000000     0.00000000     0.00000000     0.00000000     0.00000000     0.00000000
O       1.59937524     0.91606798     0.92182760    -0.29591017    -0.05424618    -0.07799059
O       1.88693734     3.78448187     3.80827640     0.29591017     0.05424618     0.07799059
O       0.14377974     1.43418210     3.28688059     0.29600685     0.05440559    -0.07825978
O       0.32745623     3.26636764     1.44322341    -0.29600685    -0.05440559     0.07825978
