# total energy = -19515.88725851 eV

CRYSTAL
PRIMVEC
        5.93400000     0.00000000     0.00000000
        0.00000000     9.29699974     0.00000000
        0.00000000     0.00000000     4.64899994
PRIMCOORD
23 1
Ti      4.47397298     6.90889801     2.28368898     1.98707344     0.52438645    -0.62476442
Ti      4.55589798     2.35138498     2.30084400    -2.31946193     0.12966129     0.17025234
Ti      1.60195802     7.13972502     2.37501200    -0.95212305    -0.38666578    -2.56936091
Ti      1.42655698     2.34455701     2.43130302     1.97243075     0.41764912    -0.94760588
Ti      2.98020202     4.65043999     0.19772602    -1.09717909    -0.50779820     1.89942322
Ti      3.02339299     0.19199699     4.57351101    -1.04594418    -0.90710224    -0.09230161
Ti      5.90735000     4.43505898     4.57582902     0.29222449     2.42991836    -0.82657886
Ti      5.91927199     0.00527002     4.61141201     0.85376417    -0.76993281     0.53917030
O       4.56186303     5.45244802     0.95744902    -1.31944615    -0.22250901    -0.41978828
O       4.46257699     1.01034601     0.82810498    -0.05101045    -0.75999498    -0.23898336
O       1.46712900     5.61363901     1.06462499     0.62045087    -1.24053357    -1.23634164
O       1.55866899     0.91903102     0.94528202    -0.87439317    -0.62822975    -0.87424559
O       4.29518701     8.48811501     3.38292602     0.52940191     0.34477992     2.42203304
O       4.18050800     3.53331502     3.69066100     1.77213428     1.57346867     1.15665232
O       1.43688700     8.46957100     3.65786302     0.06116271    -0.10921150     0.79201217
O       1.56969901     3.66769900     3.88615802    -0.79619458     0.45205795    -0.84502859
O       2.85559898     1.49106702     3.18833902     0.95839011    -1.38709756     0.73068156
O       5.65793802     5.87277398     3.30982801     0.47053982     0.51778617    -0.09591864
O       0.02539601     1.34960498     3.18739301    -1.06468007     0.35176664     0.30233896
O       2.98969800     7.72812599     1.18912399    -0.57244656     0.02083520     1.37745772
O       2.82918002     3.28950602     1.53100900     1.09200063     0.51142860    -1.10103446
O       0.04742899     7.80627600     1.50476800    -0.36758690     0.83583458    -1.27328969
O       5.90030798     3.21187497     1.30017400    -0.14910733    -1.19049782     1.75522027
