# total energy = -4989.19344674 eV

CRYSTAL
PRIMVEC
        4.23290374     0.00000000     0.00000000
       -0.00000855     3.82977047     0.00000000
       -2.11648173    -1.91492368     5.15777734
PRIMCOORD
6 1
Ti     -0.00018503     2.87247176     1.28944408    -0.00174964    -0.00021752     1.63953139
Ti      2.11659815    -0.95762485     3.86833264     0.00174964     0.00021752    -1.63953139
O       0.00004301     0.95743541     0.84015969    -0.00015581    -0.00049211    -0.54611023
O       2.11636994     0.95741139     4.31761714     0.00015581     0.00049211     0.54611023
O      -0.00002170    -0.95742202     3.41904825    -0.00177766    -0.00027819    -1.08536075
O       2.11643465     2.87226876     1.73872858     0.00177766     0.00027819     1.08536075
