# total energy = -19515.92664673 eV

CRYSTAL
PRIMVEC
        5.17600016     0.00000000     0.00000000
        0.00000000     5.50899976     0.00000000
        0.00000000     0.00000000     9.26300011
PRIMCOORD
23 1
Ti      2.02636199     3.11115101     3.33453001    -2.39990252     1.52194811     3.21112366
Ti      3.31282199     2.22877800     5.94733702     0.54338614     1.35979757    -2.97607821
Ti      4.40220998     2.09762602     1.44655898     0.75664252     0.63512571    -1.35003483
Ti      0.86978002     3.33443798     7.82445800    -1.58809439     1.10687986     0.48374835
Ti      1.95439801     0.27674399     1.39635398     0.92351823    -1.10648648    -1.94945331
Ti      3.27011702     5.25416202     7.94516000     0.54836534    -0.93518693     1.68696286
Ti      0.74688400     0.54500801     5.91640798    -0.98270248    -1.58452467    -3.11202174
Ti      4.42661098     4.81668801     3.38769401     2.66677953     0.98418317     3.51481682
O       1.85668897     1.94397501     4.74060000    -2.05194780    -1.92574233     1.00951986
O       3.62483199     3.44310702     4.42566799    -0.08522902     0.19618270     0.06533458
O       4.73897098     3.14600098     9.10514299     0.03970068    -0.89709242     1.52281843
O       3.59461502     0.84303598     0.27573299     0.08641507    -0.83095205    -1.06614612
O       1.65281201     5.00376699     8.97573401     0.33195911    -1.49648750     0.84613622
O       4.12487300     0.64567700     4.82348000     0.90647798     0.16952266    -0.02809214
O       0.83304998     4.55585898     4.40340598     1.24661166     1.27403274     1.50093088
O       0.24400702     3.34704902     2.49735001     0.23984056    -0.94731071    -1.28541553
O       5.00947300     1.98631200     6.71924300     0.87432735     0.99704512     0.87745536
O       2.62659901     1.86691400     2.17971099     0.95920850     0.08195523    -0.63353754
O       2.46432501     3.82529698     6.79016402     0.34606444    -0.68157193     0.83667919
O       0.34284701     0.60441303     2.11888699    -1.71553014     0.73342056    -0.00965912
O       5.04360901     4.87661099     7.35250000     0.35712405     0.37204751    -1.76074403
O       2.37935401     0.99248701     7.02657698    -1.25331813     0.76103859    -0.01448971
O       2.90419799     4.52539001     2.33557401    -0.74969642     0.21217548    -1.36985419
