# total energy = -19072.86775089 eV

CRYSTAL
PRIMVEC
        7.60600008     0.00000000     0.00000000
        0.00000000     7.60600008     0.00000000
       -1.89786986    -1.89786986     4.85670466
PRIMCOORD
22 1
Ti      3.86931500     6.83456501     1.20053199    -0.17380278    -2.67596428    -0.53476215
Ti      3.63803602     2.75330299     1.31111501     0.08802201     0.16557833    -0.88047126
Ti      0.05282999     6.76812803     0.86463102    -0.22283219    -0.66464250     2.30469839
Ti     -0.13471699     2.90998898     1.23053200    -0.23081959     0.64137503     0.35173707
Ti      5.58281522     2.72968724     3.57297981     1.49028445     2.94663547     1.93584882
Ti     -1.27978475    -0.92954175     3.76985481    -0.41876730    -0.06646278    -3.54908553
Ti      1.88868922     2.79347225     3.81390279    -1.41721316    -1.45276176     0.17482814
Ti      1.69874724    -1.01833780     3.57507779     0.25827872     0.52131913    -0.09978995
O       3.81655598     4.47952802     0.89138902    -0.10286216     1.93382562    -1.15793916
O       4.08471999     0.86198000     0.70452003    -1.01582267     1.52127705     0.72274328
O      -0.15537999     4.97873098     0.72826802    -0.64287013    -1.47319664     1.23970490
O       7.05830401     0.94128102     0.23962098    -0.12132449    -0.00236310     3.63558236
O      -1.35745480     4.80287924     3.95418482     0.53605464     0.86469600    -1.23384175
O       5.33467623     1.15323122     4.20432283     0.60812629    -2.95279018    -0.35905572
O       1.95622520     4.64185325     4.11077482    -0.48151818     1.26090442     0.50820187
O       2.22231124     0.70941021     4.00772983    -0.90168544     1.09899300    -0.39736131
O       3.66718723     3.08180622     3.25666983     0.21990679    -0.71417379    -0.29429809
O       0.00911725     2.70380825     3.43512279    -0.35821034    -0.40470644    -1.21101446
O       5.57191798     6.69459001     2.00197300     1.00030220     0.07232182     0.48869413
O       5.49109299     2.73933699     1.80745602     2.27568657    -0.16976846    -2.38466333
O       1.98975102     6.65136898     1.63032102    -0.45512194     0.43456956     0.56146563
O       1.70227701     2.89716501     1.53148601     0.06618896    -0.88466550     0.17877787
