# total energy = -39028.85651030 eV

CRYSTAL
PRIMVEC
        5.93200024     0.00000000     0.00000000
        0.00000000     9.29399984     0.00000000
        0.00000000     0.00000000     9.29399984
PRIMCOORD
46 1
Ti      4.49041701     7.20117801     6.99164302    -0.84826047    -1.43355355    -0.72266692
Ti      4.39995400     6.70158102     2.24048499     0.74079809    -0.96508321     1.85942070
Ti      4.50576299     2.17507598     6.95795100    -0.42501894     0.77354778     0.09814367
Ti      4.48703202     2.89767000     2.03720398     0.64118991     0.00519749    -0.25282464
Ti      1.39716198     6.92449001     7.13994299     0.69660081    -0.06353970    -1.09077575
Ti      1.45030799     6.93880198     2.29106401    -0.58530671    -1.63461209    -0.00415259
Ti      1.45304902     2.44460500     6.72548899    -2.95456270    -1.14347439    -0.00635294
Ti      1.51541198     2.10364901     3.03161699    -0.00914259    -1.08287321    -1.70780886
Ti      3.04573898     4.73928102     4.81502502     0.48949246     2.26732714     0.75611570
Ti      2.82514399     4.61009801     9.07519499     1.40494231     2.17357002    -0.17909154
Ti      3.00318599     8.94697498     4.44259102    -0.43390107     0.40262796     1.57543942
Ti      3.03007100     0.35449002     9.25379999    -3.30567345     1.31352181     1.03586674
Ti      0.09589099     4.59349798     4.66804699    -0.07184051     1.96107033     0.85807463
Ti      5.88336203     4.54043801     9.19147900    -1.28821855     1.60821431     1.16652973
Ti      5.84234698     9.07720402     4.60604599    -0.20287554    -0.57156390     1.99403214
Ti      0.06649398     9.24873201     9.22227500     0.35826048    -0.23766232     1.19786712
O       4.40668899     5.77754700     5.63925801    -0.34645165    -0.69316376     0.03640272
O       4.08233498     4.81221303     1.26609203     1.14940207     0.39584590    -0.42887894
O       4.39595400     0.94913200     5.62302799    -0.44924414    -1.25532050    -1.94978601
O       4.56800302     1.05136899     0.55044298     0.40045872     2.40521442     2.61646610
O       1.42985101     5.67285500     5.58544502     1.31265638    -0.73283255    -0.36531353
O       1.31111702     5.79283298     0.75405599     0.42538121    -2.34393910     0.34784108
O       1.17594599     1.12863998     4.85162001     1.78136300     2.22732178     0.54126550
O       1.70306702     0.86144902     1.25529602    -0.19124952    -0.68665809    -1.40439209
O       4.20806300     8.61819699     8.41936499     2.94581657    -3.59862016    -2.29732549
O       4.53449202     7.88873002     4.07228702    -1.04889581     1.14259224    -2.27805224
O       4.39806399     3.55454899     8.39328899    -0.61882285     1.19401844     2.12452698
O       4.67302898     3.91409800     3.55871701    -1.03168124    -1.03273308     1.67515326
O       1.48153601     8.37835698     8.32402498     0.16395494     1.37887285     1.24378293
O       1.28942800     8.41193899     3.49611603     1.13548802     0.55622624     0.91679762
O       1.35816998     3.78058002     8.48237503     0.84037772    -2.67149982    -1.35460600
O       1.65450199     3.72036700     3.99723000    -0.87313667    -0.82446464    -0.62680202
O       2.90249499     6.10007302     7.96194100     1.60617980    -0.63478298     0.33764613
O       3.05756303     5.96379797     3.37759397    -1.04994430    -0.13166316    -0.65244107
O       2.76178199     1.63197698     7.80191801     0.61939878    -2.11195351     1.11844263
O       3.36497701     1.86604599     3.08207298    -0.53876998    -1.45170040    -0.08120447
O       0.05156203     5.82358601     7.79274599    -1.85365062     1.20923295     0.65166125
O       0.00021802     5.92394601     3.36026501     0.95105295     1.73050502    -2.20366685
O       0.15203998     1.49498098     7.69316600    -0.74639127    -1.58508440     1.06417305
O       2.87117902     7.96218601     5.99006601     0.09110553     0.44623312    -0.05357127
O       3.02330901     7.72527198     1.72975200     0.86457901     1.45717223    -1.77243073
O       2.82101100     3.33119698     6.32993502     3.67206787     2.91974275    -2.75171801
O       0.13197300     7.98138599     6.15421299    -1.01207914     0.60664636    -0.26060171
O       0.11169302     7.87891902     1.32342399    -2.06103485     0.06457816    -0.11251229
O       5.65881799     3.61195700     6.27180300     1.08929454    -2.33988087    -0.78200183
O       0.45776700     2.91070703     1.68625897    -1.43370833     0.98738008     0.12332789
