# total energy = -19927.26653722 eV

CRYSTAL
PRIMVEC
        6.20239769     0.00000000     0.00000000
        0.98467891     6.52737323     0.00000000
        0.00000000     0.00000000    11.13245351
PRIMCOORD
24 1
Ti      2.83159063     3.86811527     4.13006089    -0.09824189    -1.56922635     0.74621900
Ti      4.35548589     2.65925778     7.00239288     0.09824189     1.56922635    -0.74621900
Ti      5.75032678     2.65925998     1.43612148     0.08587796     0.06926477    -0.38495111
Ti      1.43674977     3.86811332     9.69633242    -0.08587796    -0.06926477     0.38495111
Ti      2.33925131     0.60442877     1.43616612    -0.09824189    -1.56922635    -0.74621900
Ti      4.84782522     5.92294447     9.69628777     0.09824189     1.56922635     0.74621900
Ti      0.94441042     0.60442638     7.00234823    -0.08587796    -0.06926477    -0.38495111
Ti      6.24266612     5.92294686     4.13010553     0.08587796     0.06926477     0.38495111
O       2.30982019     2.29839900     5.68080587     1.67329564     1.78030551    -0.40300309
O       4.87725634     4.22897405     5.45164783    -1.67329564    -1.78030551     0.40300309
O       1.48486323     2.29842539     0.11461484    -1.02051776     0.61761803     0.55977539
O       5.70221337     4.22894772    11.01783861     1.02051776    -0.61761803    -0.55977539
O       4.38491700     0.96528736     0.11457873    -1.67329564    -1.78030551    -0.40300309
O       2.80215952     5.56208569    11.01787472     1.67329564     1.78030551     0.40300309
O       5.20987403     0.96526103     5.68084204     1.02051776    -0.61761803     0.55977539
O       1.97720243     5.56211208     5.45161173    -1.02051776     0.61761803    -0.55977539
O       0.82428497     3.97031841     3.00715348     0.45137687     0.80959004     1.11466645
O       6.36279155     2.55705458     8.12530029    -0.45137687    -0.80959004    -1.11466645
O       3.71229075     2.55699387     2.55910882     0.61330038     1.16537839     0.35872302
O       3.47478577     3.97037912     8.57334476    -0.61330038    -1.16537839    -0.35872302
O       0.33194564     0.70663172     2.55907321     0.45137687     0.80959004    -1.11466645
O       6.85513088     5.82074127     8.57338030    -0.45137687    -0.80959004     1.11466645
O       2.98244644     0.70669243     8.12533576    -0.61330038    -1.16537839     0.35872302
O       4.20463008     5.82068056     3.00711794     0.61330038     1.16537839    -0.35872302
