# total energy = -19922.58098910 eV

CRYSTAL
PRIMVEC
        6.23355402     0.00000000     0.00000000
        2.84164504     5.99500918     0.00000000
        0.00000000     0.00000000    11.46497900
PRIMCOORD
24 1
Ti      3.94331967     3.55263686     4.25342541     0.28408001    -2.63314460     0.61980810
Ti      5.13187918     2.44237225     7.21155365    -0.28408001     2.63314460    -0.61980810
Ti      6.53372734     2.44237427     1.47901833    -1.12185217    -1.18647096     0.51100000
Ti      2.54147163     3.55263506     9.98596092     1.12185217     1.18647096    -0.51100000
Ti      2.52249730     0.55513236     1.47906428     0.28408001    -2.63314460    -0.61980810
Ti      6.55270159     5.43987692     9.98591497    -0.28408001     2.63314460     0.61980810
Ti      1.12064910     0.55513015     7.21150770     1.12185217     1.18647096     0.51100000
Ti      7.95454985     5.43987912     4.25347142    -1.12185217    -1.18647096    -0.51100000
O       2.97355067     2.11094462     5.85049103     1.78929203     2.11268396    -0.95583752
O       6.10164819     3.88406448     5.61448809    -1.78929203    -2.11268396     0.95583752
O       2.14445722     2.11096884     0.11803840     0.16283754    -1.08150435     1.67008819
O       6.93074172     3.88404037    11.34694041    -0.16283754     1.08150435    -1.67008819
O       4.68082579     0.88655986     0.11800116    -1.78929203    -2.11268396    -0.95583752
O       4.39437308     5.10844930    11.34697759     1.78929203     2.11268396     0.95583752
O       5.50991931     0.88653569     5.85052821    -0.16283754     1.08150435     1.67008819
O       3.56527949     5.10847348     5.61445085     0.16283754    -1.08150435    -1.67008819
O       1.95492899     3.64650446     3.09697686     0.66309521     2.86390737     2.68244141
O       7.12026981     2.34850465     8.36800226    -0.66309521    -2.86390737    -2.68244141
O       4.45643767     2.34844886     2.63554913     0.81127488     1.98589022     1.52518847
O       4.61876118     3.64656024     8.82942974    -0.81127488    -1.98589022    -1.52518847
O       0.53410657     0.64899978     2.63551251     0.66309521     2.86390737    -2.68244141
O       8.54109222     5.34600933     8.82946636    -0.66309521    -2.86390737     2.68244141
O       3.19793877     0.64905556     8.36803876    -0.81127488    -1.98589022     1.52518847
O       5.87726008     5.34595354     3.09694024     0.81127488     1.98589022    -1.52518847
