# total energy = -19901.87292932 eV

CRYSTAL
PRIMVEC
        6.73603285     0.00000000     0.00000000
        1.41967392     7.02720490     0.00000000
        0.00000000     0.00000000    12.11735266
PRIMCOORD
24 1
Ti      3.28278526     4.16431512     4.49545157    -0.29159946    -1.59561642     0.60086755
Ti      4.87292118     2.86288995     7.62190158     0.29159946     1.59561642    -0.60086755
Ti      6.38776992     2.86289247     1.56317659     0.29030311    -0.10840521    -0.38319993
Ti      1.76793655     4.16431287    10.55417669    -0.29030311     0.10840521     0.38319993
Ti      2.57294847     0.65071293     1.56322518    -0.29159946    -1.59561642    -0.60086755
Ti      5.58275799     6.37649235    10.55412810     0.29159946     1.59561642     0.60086755
Ti      1.05809964     0.65071021     7.62185299    -0.29030311     0.10840521    -0.38319993
Ti      7.09760683     6.37649507     4.49550015     0.29030311    -0.10840521     0.38319993
O       2.63188813     2.47439834     6.18339250     1.70288802     1.83191682    -0.47600162
O       5.52381831     4.55280674     5.93396064    -1.70288802    -1.83191682     0.47600162
O       1.73595588     2.47442664     0.12475495    -0.92427825     0.43580935     0.68549904
O       6.41975064     4.55277850    11.99259785     0.92427825    -0.43580935    -0.68549904
O       4.81398150     1.03920434     0.12471562    -1.70288802    -1.83191682    -0.47600162
O       3.34172494     5.98800074    11.99263718     1.70288802     1.83191682     0.47600162
O       5.70991382     1.03917610     6.18343183     0.92427825    -0.43580935     0.68549904
O       2.44579256     5.98802905     5.93392131    -0.92427825     0.43580935    -0.68549904
O       1.10826174     4.27434429     3.27319938     0.50589944     1.19264984     1.42021775
O       7.04744470     2.75286078     8.84415377    -0.50589944    -1.19264984    -1.42021775
O       4.16889981     2.75279515     2.78551574     0.53238027     1.43347770     0.67492306
O       3.98680663     4.27440993     9.33183719    -0.53238027    -1.43347770    -0.67492306
O       0.39842492     0.76074189     2.78547702     0.50589944     1.19264984    -1.42021775
O       7.75728153     6.26646325     9.33187591    -0.50589944    -1.19264984     1.42021775
O       3.27696981     0.76080746     8.84419242    -0.53238027    -1.43347770     0.67492306
O       4.87873663     6.26639761     3.27316066     0.53238027     1.43347770    -0.67492306
