# total energy = -19958.25452761 eV

CRYSTAL
PRIMVEC
        7.60600008     0.00000000     0.00000000
        0.00000000     7.60600008     0.00000000
       -1.89786986    -1.89786986     4.85670466
PRIMCOORD
24 1
Ti      3.91490801     6.64847301     1.06254500    -1.14807666    -1.07096102     0.80680553
Ti      3.90201498     2.60430398     1.18121300    -1.10467745     0.72612994     1.61384606
Ti     -0.07930002     6.71778702     1.18909499     0.64718599     2.45275748     0.98599709
Ti     -0.09912098     2.95948801     1.32762100    -0.30454111    -2.65543299    -1.57384919
Ti      5.60172823     2.92474922     3.80029182    -1.60663951    -0.52369766    -2.30706612
Ti      5.68031222    -0.82175178     3.69696483     1.01024723     0.74257241    -1.15264834
Ti      1.75459825     2.71006323     3.67690583     1.59941162     0.38197300     0.30224074
Ti      2.04922922    -0.98391477     3.57851279    -0.22143608    -0.34533271    -1.42128219
O       3.84300500     4.74674703     0.73666701    -0.04099548    -0.27040611     0.22340504
O       4.28252798     0.84075200     0.64191502    -1.28994196     0.66300470     0.30431563
O      -0.25678702     4.87866398     0.71953501     0.61596738    -0.74157996     2.62203409
O       7.29443301     1.11153401     0.64945897     1.20456408    -0.89101382     3.05208828
O       5.59606524     5.00126721     4.06574782     0.36216933    -3.70111440     0.47853313
O       5.43259821     1.01887724     4.11096379     1.42093406     2.13159135     0.52350097
O       2.16537621     4.77796621     3.91051780    -1.07703886    -1.27240806    -0.04712397
O       2.04429824     0.86776422     4.20784382    -0.86505132     0.97590936    -1.85940810
O       3.85105521     2.88233423     3.15031282     0.14694914     0.17036804     0.06571022
O       3.88589920    -0.79536875     3.13576579    -1.69903574    -0.25283235    -0.92496242
O      -0.13964077     2.70948325     3.45740682     0.90714492     0.97040514    -1.52303826
O       0.05908724    -0.90790179     3.32938783     0.67137725     0.20463752    -1.42328328
O       5.72187798     6.77742699     1.70611900     1.62341648    -0.71360712    -0.87960840
O       5.69900101     2.70281202     1.39366401     1.31090469     1.66735742     2.11839876
O       2.01664100     6.75499099     1.37752098    -1.09371452    -0.09950816     1.00034951
O       1.88896699     2.30685001     1.81755399    -1.06912397     1.45118824    -0.98495528
