# total energy = -19074.21515296 eV

CRYSTAL
PRIMVEC
        7.60600008     0.00000000     0.00000000
        0.00000000     7.60600008     0.00000000
       -1.89786986    -1.89786986     4.85670466
PRIMCOORD
22 1
Ti      3.66809302     6.70745399     1.14714600     1.33241711    -0.07589874     1.83321575
Ti      3.93151301     2.93150898     1.42787400    -0.78797065    -1.46248439     2.09314486
Ti      0.10919901     6.63836699     1.03054602    -0.93066744    -0.52693133     1.85907951
Ti     -0.19613399     2.80354599     1.20013802     0.69004938     2.39267617    -0.37840045
Ti      5.88548323     2.82113721     3.74491580    -1.45117101    -0.80526390    -0.49922589
Ti      5.85604325    -0.84242478     3.64177683    -0.84480542     0.24682188    -0.98881605
Ti      1.88004024     2.81257825     3.87265279     2.00990819     0.44858748    -1.45457156
Ti      1.71866420    -0.65200876     3.85840781     1.06754043    -2.60314316    -0.11217933
O       3.83524699     4.61491802     0.86534202    -1.06950758     2.54321458     1.04955890
O       3.67983002     1.00722100     1.01061901    -0.56434913    -0.26719711    -0.22756663
O      -0.02116000     4.68570500     0.94493800     0.86211358     1.35602808    -0.49014346
O      -0.04248902     1.12053801     0.69664502     0.42285304    -4.02034063     0.46226627
O       5.65460420     4.65323924     4.07200481     0.75949156     2.93135565    -0.28505420
O       5.31375320     1.08250525     4.06787781     0.70045026    -1.46685089    -0.80735086
O       1.74474523     4.72374322     4.24356582    -0.38480147     1.03285752    -1.36149245
O       2.40230824     0.92211824     4.29712581    -0.18549385     0.53097928    -1.25869610
O       3.75191020     3.16719421     3.45584183    -1.10371226    -0.75855722    -1.56474620
O       0.12991921     2.82218223     3.08969282     0.78052242    -0.44855971     1.71510539
O       5.63349098     6.57937801     1.69352802     0.02571387     0.34207923     0.62713909
O       5.70501400     2.88343699     1.74349399    -0.39629225    -0.41888068     0.92925950
O       1.90467799     6.39451598     1.90345898     0.02275093     1.07417413    -0.28507528
O       0.00810821    -0.35119478     3.52666479    -0.95503945    -0.04466599    -0.85545108
