# total energy = -19959.98849042 eV

CRYSTAL
PRIMVEC
        5.93400000     0.00000000     0.00000000
        0.00000000     9.29699974     0.00000000
        0.00000000     0.00000000     4.64899994
PRIMCOORD
24 1
Ti      4.45370899     6.81895201     2.33502499     1.28207515     2.52866521     0.31979162
Ti      4.49421401     2.44591599     2.38599000    -1.36991538    -2.66907398    -0.04809122
Ti      1.52434799     6.81452502     2.13753599    -1.09097578     2.93842928     1.19470518
Ti      1.46190602     2.41363999     2.34019098     1.45231053    -2.99375301     0.10901199
Ti      2.90553400     4.65665301     4.64793101     1.21788600    -1.58137815    -0.06649441
Ti      2.95418799     9.21733100     0.08169100     0.53380235     1.30488316    -0.60595962
Ti      5.92156698     4.64928401     4.64792497    -0.96064034    -0.72751448    -0.62350612
Ti      5.92618898     0.00970199     0.03302902    -0.60226186     0.41841223     0.32216217
O       4.45996799     5.56058698     0.83684101     0.19003339    -0.06458922     0.07807518
O       4.43756897     0.83416501     0.90583397    -0.10643883     1.64424756     1.02248311
O       1.49172299     5.65303001     0.76401198    -0.32081646    -0.54353141    -0.36084238
O       1.50405399     0.89900399     0.95374298    -0.26866007     1.05987596     0.94406752
O       4.41677098     8.34046498     3.81893500     0.25440998    -0.67193981    -1.20296562
O       4.48702001     3.83079899     3.69381601    -0.07851869     0.51685261     0.86197268
O       1.43383698     8.50011897     3.92028498     0.53172181    -1.90600962    -2.43802351
O       1.52877101     3.80031500     3.69195701    -0.37891107     0.64190262     1.33256058
O       2.94523198     6.00632599     3.14862797    -0.37935176     0.13041617     0.10445162
O       3.04186599     1.61640800     3.19119801    -0.07493843    -0.85978879     0.68141998
O       0.04302603     5.95880497     3.11786198     0.08132094     0.08194057     0.34365069
O       5.92743699     1.53955400     3.32666500    -0.24252531     0.11523072    -0.51951704
O       2.99134702     7.82463400     1.30793000    -0.38600912    -1.44941958     2.01268910
O       2.88010201     3.31046398     1.44997599     1.04769562     1.46082191    -1.65886918
O       5.87307101     7.89622401     1.48354398     0.59394973    -1.06167677     0.46898507
O       0.08191801     3.29189203     1.51448402    -0.92524267     1.68699757    -2.27175715
