# total energy = -19892.49781219 eV

CRYSTAL
PRIMVEC
        8.34590091     0.00000000     0.00000000
        0.00002595     2.96085414     0.00000000
        0.00000000     0.00000000    13.27762443
PRIMCOORD
24 1
Ti      3.02500285     1.75459932     4.92590408    -0.11521118     0.31287740     1.75218303
Ti      5.32092367     1.20625453     8.35172075     0.11521118    -0.31287740    -1.75218303
Ti      7.19781094     1.20625549     1.71285529    -0.11415702    -0.31303450    -1.75191692
Ti      1.14811563     1.75459848    11.56476965     0.11415702     0.31303450     1.75191692
Ti      3.02499022     0.27417231     1.71290854    -0.11471187     0.31112211    -1.75171175
Ti      5.32093636     2.68668166    11.56471640     0.11471187    -0.31112211     1.75171175
Ti      1.14810294     0.27417130     8.35166750     0.11408812     0.31113445    -1.75233344
Ti      7.19782363     2.68668267     4.92595732    -0.11408812    -0.31113445     1.75233344
O       2.64153934     1.04256698     6.77547027     3.51758925     0.10416108    -0.61011992
O       5.70438724     1.91828692     6.50215455    -3.51758925    -0.10416108     0.61011992
O       1.53147793     1.04257900     0.13670061    -3.51675955     0.10420942    -0.61133271
O       6.81444870     1.91827491    13.14092382     3.51675955    -0.10420942     0.61133271
O       5.70437455     0.43785980     0.13665749    -3.51545960    -0.10354685    -0.61053747
O       2.64155203     2.52299405    13.14096694     3.51545960     0.10354685     0.61053747
O       6.81443601     0.43784784     6.77551333     3.51713982    -0.10348103    -0.61030890
O       1.53149045     2.52300607     6.50211149    -3.51713982     0.10348103     0.61030890
O       0.30324146     1.80095932     3.58661767    -0.68740243     0.33315056     2.44421421
O       8.04268512     1.15989453     9.69100710     0.68740243    -0.33315056    -2.44421421
O       4.47620295     1.15986708     3.05223693    -0.68710598    -0.33294307    -2.44531670
O       3.86972362     1.80098683    10.22538767     0.68710598     0.33294307     2.44531670
O       0.30322877     0.32053226     3.05219454    -0.68769347     0.33388795    -2.44537969
O       8.04269780     2.64032165    10.22543005     0.68769347    -0.33388795     2.44537969
O       3.86971099     0.32055970     9.69104942     0.68727516     0.33397151    -2.44515241
O       4.47621559     2.64029415     3.58657529    -0.68727516    -0.33397151     2.44515241
