# total energy = -19934.78036587 eV

CRYSTAL
PRIMVEC
        6.21090326     0.00000000     0.00000000
        0.00002344     3.96616740     0.00000000
        0.00000000     0.00000000     9.48578212
PRIMCOORD
24 1
Ti      2.25116741     2.35034711     3.51915753    -0.31454991     2.23732981    -2.61393588
Ti      3.95975888     1.61582024     5.96662469     0.31454991    -2.23732981     2.61393588
Ti      5.35651219     1.61582157     1.22369569    -0.31331912    -2.23765762     2.61683403
Ti      0.85441415     2.35034593     8.26208659     0.31331912     2.23765762    -2.61683403
Ti      2.25115590     0.36726346     1.22373374    -0.31427788     2.23731258     2.61467070
Ti      3.95977039     3.59890399     8.26204859     0.31427788    -2.23731258    -2.61467070
Ti      0.85440259     0.36726203     5.96658664     0.31309672     2.23725473     2.61592232
Ti      5.35652370     3.59890543     3.51919553    -0.31309672    -2.23725473    -2.61592232
O       1.96579823     1.39655492     4.84052203     2.46574207    -1.90664956     2.95057826
O       4.24512811     2.56961238     4.64526019    -2.46574207     1.90664956    -2.95057826
O       1.13970600     1.39657094     0.09766145    -2.46585571    -1.90721366     2.95142775
O       5.07122039     2.56959641     9.38812047     2.46585571     1.90721366    -2.95142775
O       4.24511659     0.58652862     0.09763066    -2.46515534     1.90713036     2.95117141
O       1.96580975     3.37963868     9.38815125     2.46515534    -1.90713036    -2.95117141
O       5.07120883     0.58651266     4.84055276     2.46484707     1.90750266     2.95117038
O       1.13971741     3.37965469     4.64522941    -2.46484707    -1.90750266    -2.95117038
O       0.22567065     2.41244785     2.56234640     1.50473586    -0.17516932     2.03373358
O       5.98525569     1.55371945     6.92343577    -1.50473586     0.17516932    -2.03373358
O       3.33112943     1.55368258     2.18057484     1.50478368     0.17536498    -2.03564057
O       2.87979686     2.41248477     7.30520718    -1.50478368    -0.17536498     2.03564057
O       0.22565909     0.42936410     2.18054456     1.50488626    -0.17485025    -2.03567040
O       5.98526720     3.53680320     7.30523746    -1.50488626     0.17485025     2.03567040
O       2.87978534     0.42940102     6.92346600    -1.50478522    -0.17543775    -2.03486718
O       3.33114094     3.53676628     2.56231612     1.50478522     0.17543775     2.03486718
