# total energy = -19516.23716318 eV

CRYSTAL
PRIMVEC
        5.17600016     0.00000000     0.00000000
        0.00000000     5.50899976     0.00000000
        0.00000000     0.00000000     9.26300011
PRIMCOORD
23 1
Ti      1.91465399     3.23725802     3.43286998     0.10306554    -0.88986145     2.93261781
Ti      3.46641399     2.21146401     5.80139199     0.24886360     0.35113080    -1.44319108
Ti      4.21584598     2.18695098     1.54290502     2.47787048     0.49163650    -2.92522563
Ti      0.80219398     3.48869400     7.73239402    -2.16196432    -0.83408700     1.27891372
Ti      1.87208300     0.03293499     1.46828600     0.35424775     1.63626120    -2.43186211
Ti      3.17575302     4.98969098     8.04265201     1.08365636     2.25465751     0.78616033
Ti      0.84975500     0.52436698     5.87857001    -0.09131816     1.35240694    -1.69610468
Ti      4.58655698     5.00555899     3.23590999    -0.65377084    -0.45788356     3.19281149
O       1.77690698     1.92804398     4.81344802    -0.84692787     0.73118550    -0.63526738
O       3.63741101     3.62734500     4.49676899    -0.27251878     0.34782205    -0.81232826
O       4.86534401     2.76667800     9.14224498    -0.74940537     0.54029773     0.35566777
O       3.32626399     0.71897598     0.47259799    -0.59550679    -0.86163715    -1.77431638
O       1.46726802     4.52534001     9.18585601     1.95506783     0.59517821    -0.04818121
O       4.23884598     0.90295499     4.78669202     1.04507386    -1.56137728    -1.48696953
O       1.00555002     4.86962601     4.34094401     0.37951656    -0.51168546     0.13703702
O       0.36702999     3.58347901     2.35535000    -0.52125536    -0.84155066    -0.18389668
O       5.11643602     2.08628702     6.70250401     0.72396198     1.31354830     0.47997732
O       2.72054797     1.80703500     2.42996299    -2.05832131    -0.62137853     0.82770861
O       2.55470202     3.67571201     6.92520202    -0.29270915    -0.38775464     0.50749276
O       0.17620698     0.69287098     1.94137501    -0.30166610     0.82133792     0.63595592
O       5.14900699     5.14155501     7.27356300    -1.75451579    -1.18094669     0.07980579
O       2.50687398     0.93110499     6.90610501    -0.40696516    -1.56550184     1.38350907
O       2.90862699     4.31201601     2.18720202     2.33552156    -0.72179814     0.83968532
