# total energy = -19069.89394408 eV

CRYSTAL
PRIMVEC
        5.17600016     0.00000000     0.00000000
        0.00000000     5.50899976     0.00000000
        0.00000000     0.00000000     9.26300011
PRIMCOORD
22 1
Ti      1.86525900     3.38591698     3.05216103    -1.13567160     1.60826599     0.17149984
Ti      3.50795801     2.60043400     5.94880400     0.91445869    -0.67368276     0.46886423
Ti      4.43097500     2.21142998     1.49241500     0.52514236     1.28491288    -0.12434657
Ti      1.18045501     2.10968798     7.91778899    -2.60943285     1.30004229    -1.54839989
Ti      1.70959902     0.56534202     1.35646597    -0.39646760     0.67317008    -2.56369676
Ti      3.04057501     0.33357201     7.94745297     4.86887852    -0.70319723    -1.59976463
Ti      0.67710901     4.80045201     6.45474301     1.09150286     1.21578823     0.28068487
Ti      4.53699598     5.31031799     3.68947702    -1.20372333    -2.32340909     1.52296653
O       3.38521201     3.48618898     4.19018501    -0.20547184     1.38236081     1.00304608
O       1.22505698     2.40799202     0.37211601    -1.36588903     0.35842348     1.42353396
O       5.04934502     3.29880901     7.05779399    -0.66514541     4.33591924    -1.12266670
O       3.58341000     0.94033802     0.40257302     0.25487021    -0.05425724    -1.04577577
O       1.46183702     0.15018098     8.65510901    -4.29443704    -0.96524159     1.15916069
O       4.25521899     1.30678798     4.78501199     0.65536055    -2.46820930    -0.79814194
O       0.89018398     4.44353402     4.66943100    -0.62267025     0.44344630    -1.02015755
O       0.07751002     3.97847501     2.20541800     0.23492435    -2.63860845     0.46100360
O       4.45085598     1.46540701     7.35701102     0.44983755    -4.57327920     0.34625111
O       2.61649400     1.82891997     2.31472199     1.00143811     1.36047403     2.30595386
O       2.23382000     3.77147198     6.89757298     1.10421851     0.59743204     0.83198667
O       0.07635297     0.75983699     2.34307198     0.69297787     2.24727304    -0.10401607
O       2.09816901     1.24958699     6.44561502    -0.40946736    -1.12538333    -1.03858234
O       2.64121499     4.76586498     2.14107200     1.11476621    -1.28223996     0.99059602
