# total energy = -19960.09476017 eV

CRYSTAL
PRIMVEC
        7.60600008     0.00000000     0.00000000
        0.00000000     7.60600008     0.00000000
       -1.89786986    -1.89786986     4.85670466
PRIMCOORD
24 1
Ti      3.71799602     6.72416202     1.29607002     0.40055437     2.30391369     1.28730889
Ti      3.72285398     3.09216100     1.26180299     0.69938583    -1.96313209    -2.28469597
Ti      0.09148300     6.47687299     1.19195302    -0.39569472     2.88587591     0.53907260
Ti      0.04442200     2.87024597     1.07629297    -0.02728713    -2.05087514     1.04263106
Ti      5.67370121     2.81456425     3.47715984     1.27341927    -0.20951233     0.19320690
Ti      5.72501923    -1.07633679     3.57588182     0.09482952     0.18145953     1.17201467
Ti      1.90584822     3.07226320     3.69505683    -0.97954387    -2.73253114    -0.59012393
Ti      1.82569522    -0.96356578     3.68243082     0.35976226     2.82975050     1.00811887
O       3.69489998     4.93310198     0.89722701     0.61884573    -2.08680400    -0.96505879
O       3.70372702     1.01428001     0.79626999     0.28821383    -0.60677851     0.81851974
O       0.10459501     4.71912900     0.65730900    -0.11529345    -1.96196533     0.18506705
O       0.31603000     0.79290199     0.80548001    -1.00885497     0.76134635    -0.37208787
O       5.89756123     4.67987723     4.07145081    -0.78155317    -0.63559982    -0.92690617
O       5.63639024     0.84363422     4.03431083     0.16948744     0.67565788    -0.38158450
O       1.76880724     4.89007421     4.15091080     0.26321421    -2.73007317    -0.01915241
O       1.82568421     1.06185024     4.09480282     0.14378540     0.60190293     1.17370363
O       3.78638520     2.93340921     3.39092781     0.44611870     0.57975081    -0.67267103
O       3.73850323    -1.02517276     3.24989879     1.04242614     0.27606125    -0.01391790
O       0.02201721     2.75752524     3.06353680    -0.40809439     0.72473846     0.48053010
O       0.02981623    -1.08410178     3.25646181    -0.97634002     0.61209761    -0.49406645
O       5.74948701     6.58088702     1.69105501    -0.53695530    -0.00399035    -0.78877206
O       5.68054299     2.83605102     1.50548499     0.06089969     0.22888586     0.82139295
O       1.86925900     6.28907598     1.76246902     0.48989664     0.99458406    -0.83914976
O       2.00661198     2.70021402     1.75020502    -1.12122225     1.32523705    -0.37337960
