# total energy = -19960.68980266 eV

CRYSTAL
PRIMVEC
        5.93400000     0.00000000     0.00000000
        0.00000000     9.29699974     0.00000000
        0.00000000     0.00000000     4.64899994
PRIMCOORD
24 1
Ti      4.43334302     6.99663798     2.33195502     0.32234961    -0.45245802    -0.30452337
Ti      4.41167099     2.24612702     2.41364099     0.05239576     0.25872352    -0.54670158
Ti      1.52596298     6.90634902     2.32568300    -0.31302653     0.47618571     0.43895458
Ti      1.42966902     2.35810098     2.20660097    -0.19909576    -0.32664207    -0.76735708
Ti      2.95618600     4.62879897     0.01367902     0.95907377     0.69598683     0.42552647
Ti      3.00712301     0.02233901     4.59478298    -1.63371015    -0.60746140     0.10325400
Ti      0.03808298     4.63143200     4.55350203    -0.73156551     0.52886249     0.49628403
Ti      5.91034700     9.29493601     0.05781298     1.36388820    -0.64174142    -0.02643738
O       4.37892301     5.62495102     1.01704200     0.42892573    -0.81701590    -0.80589330
O       4.48977802     1.07682601     0.86936498    -0.38967937    -1.40962557    -0.41478620
O       1.56396997     5.39073902     1.02521499    -0.94291901     1.10222976    -0.03371180
O       1.48440997     0.90161199     0.87195001     0.08026010     0.61018343     0.34201444
O       4.42738797     8.39074597     3.76137898     0.29189848     0.75219065     1.07499637
O       4.44253202     3.86431798     3.59391999     0.45031346    -0.42889231     0.58876022
O       1.50506101     8.33835102     3.84257202     0.16803451     0.79340571     0.31940544
O       1.47855198     3.79765398     3.73645002    -0.06996617    -0.51129054    -0.98205636
O       2.96307499     6.12473898     3.33888799     0.06043946    -0.46452627    -0.04072192
O       2.91701799     1.31991602     3.14992800     0.46267790     0.75232306     0.22563444
O       0.02821398     6.21947499     3.33488101    -0.20821033    -1.12589703     0.37414527
O       0.01754900     1.39114402     3.20593999    -0.16916014     0.66898021    -0.37146978
O       2.93334099     7.97668102     1.68209398     0.49090939     0.38173260    -1.78522789
O       2.96602399     3.19429301     1.38405500     0.01267143    -0.24547257     0.24213939
O       0.06110198     7.90953398     1.42753400    -0.63234017    -0.07532949     0.13133071
O       0.00462803     3.16613898     1.21856598     0.14583508     0.08554860     1.31644156
