# total energy = -19906.57477039 eV

CRYSTAL
PRIMVEC
        8.29673151     0.00000000     0.00000000
        0.00002717     3.78438473     0.00000000
        0.00000000     0.00000000    12.62697689
PRIMCOORD
24 1
Ti      3.00718209     2.24262290     4.68451837     0.10982703    -0.18158654     2.66187078
Ti      5.28957623     1.54176189     7.94245870    -0.10982703     0.18158654    -2.66187078
Ti      7.15540584     1.54176318     1.62891966     0.10906778     0.18176883    -2.66195819
Ti      1.14135248     2.24262173    10.99805753    -0.10906778    -0.18176883     2.66195819
Ti      3.00716869     0.35043060     1.62897032     0.10982703    -0.18158654    -2.66187078
Ti      5.28958963     3.43395425    10.99800688    -0.10982703     0.18158654     2.66187078
Ti      1.14133907     0.35042919     7.94240805    -0.10906778    -0.18176883    -2.66195819
Ti      7.15541924     3.43395566     4.68456902     0.10906778     0.18176883     2.66195819
O       2.62597738     1.33254618     6.44344970     1.96878415     0.80259252    -1.92208545
O       5.67078094     2.45183855     6.18352737    -1.96878415    -0.80259252     1.92208545
O       1.52245583     1.33256145     0.13000179    -1.96756159     0.80266399    -1.92242252
O       6.77430255     2.45182334    12.49697492     1.96756159    -0.80266399     1.92242252
O       5.67076759     0.55964618     0.12996083    -1.96878415    -0.80259252    -1.92208545
O       2.62599072     3.22473861    12.49701588     1.96878415     0.80259252     1.92208545
O       6.77428921     0.55963092     6.44349066     1.96756159    -0.80266399    -1.92242252
O       1.52246905     3.22475387     6.18348641    -1.96756159     0.80266399     1.92242252
O       0.30145584     2.30187730     3.41086150    -1.80089491     0.50527107     0.13000274
O       7.99530247     1.48250743     9.21611557     1.80089491    -0.50527107    -0.13000274
O       4.44983215     1.48247217     2.90266718    -1.80072650    -0.50526464    -0.12998525
O       3.84692616     2.30191262     9.72430972     1.80072650     0.50526464     0.12998525
O       0.30144250     0.40968494     2.90262688    -1.80089491     0.50527107    -0.13000274
O       7.99531581     3.37469985     9.72435001     1.80089491    -0.50527107     0.13000274
O       3.84691282     0.40972019     9.21615580     1.80072650     0.50526464    -0.12998525
O       4.44984550     3.37466460     3.41082121    -1.80072650    -0.50526464     0.12998525
