# total energy = -19958.11667944 eV

CRYSTAL
PRIMVEC
        7.60600008     0.00000000     0.00000000
        0.00000000     7.60600008     0.00000000
       -1.89786986    -1.89786986     4.85670466
PRIMCOORD
24 1
Ti      3.93225201     6.56045802     1.21320901    -3.00026613    -2.62812863    -1.10805897
Ti      3.75629798     2.62071699     1.40415400    -1.93911901     1.82296501    -0.30423515
Ti      0.06513902     6.91482199     1.15276200     2.23218631    -3.17562263     0.12750388
Ti     -0.03316200     2.85672100     1.12838502     1.34964891     2.86774628     1.02125310
Ti      5.68197320     2.96545523     3.62211784     0.47144459     0.11324505     1.41049460
Ti      5.81333325    -0.79397776     3.54002080    -0.34397259    -0.49562660    -0.70369423
Ti      1.71683224     2.61359723     3.61958181     0.74457967     1.45157931     2.24009220
Ti      1.87304420    -0.98627976     3.75609282     0.91947723    -1.11620654    -0.92373112
O       3.82276100     4.66013299     0.81960502    -0.24354295     1.12605773     0.15692631
O       3.83505300     0.88155500     0.87114598     0.87917183    -1.20864185    -0.75443779
O       0.04749202     4.88476402     0.87039699    -0.57161841     0.17929595    -1.20611085
O      -0.00392401     1.08353799     0.58312401    -1.18152287    -1.32804341     0.90683742
O       6.03206623     4.91427121     3.94062481    -1.02461996    -0.79715360     0.61613836
O      -1.54458076     1.05574021     4.11561383    -1.68959593     0.51071846    -1.56367096
O       1.68796224     4.56869724     3.93513983     0.68307989     1.74520197     0.79701014
O       1.54854525     0.86088222     4.41869280     0.99544641    -0.18827398    -3.06133474
O       3.57325620     2.57662325     3.40791779     2.18197548     0.18673209    -0.83179332
O       3.74797524    -0.95934877     3.20570382     2.02830907     0.29797400     0.72440473
O      -0.05950979     2.76363322     3.06782081    -1.19148410     0.08274610    -0.01718397
O       0.11318223    -0.71721176     3.24280782    -1.63974556    -0.45255161    -2.10844499
O       5.72498102     6.76638899     1.45566300     2.57337080     0.43912144     1.46823723
O       5.49654198     3.00695098     1.73676201     2.48190069    -0.33596309     0.13039097
O       2.08625400     6.74160497     1.55522902    -3.60926479     0.43739366     0.59717107
O       1.82099099     2.60897503     1.41399199    -1.10583856     0.46543515     2.38623607
