# total energy = -19516.52780130 eV

CRYSTAL
PRIMVEC
        5.17600016     0.00000000     0.00000000
        0.00000000     5.50899976     0.00000000
        0.00000000     0.00000000     9.26300011
PRIMCOORD
23 1
Ti      2.04586503     3.26510301     3.40600598    -1.80758364    -2.13370043     3.14905104
Ti      3.42443002     2.26355802     6.03159701    -4.29146202    -0.46487825    -3.62042544
Ti      4.36984101     2.24244601     1.40099598    -0.88087133    -0.62726584    -2.46343964
Ti      0.67883498     3.33560302     7.81241599     1.20626512     0.24994474     2.17106448
Ti      1.91403798     0.31616002     1.39796898     0.60501114    -0.39983189    -2.45668638
Ti      3.43442698     4.98409398     7.94770301    -0.25722148     1.31604330     3.14329305
Ti      0.68219700     0.55758100     5.86561400     2.01286393     0.21285348    -3.48858154
Ti      4.56843498     4.84426598     3.40623098     0.52126539     0.89788432     1.55503822
O       1.67550599     1.94270499     4.87210901    -0.02000782     0.21587170    -0.25586754
O       3.61434200     3.42846003     4.46849499     0.65879658     0.88032599     0.34306499
O       4.43654999     3.53118503     9.09327799     0.03387275    -0.89130409     0.43343108
O       3.61340700     0.78913198     0.17462902    -0.74250684     0.07480422    -0.62194314
O       1.71054001     4.63693603     9.24681300    -0.18004979    -0.35646199    -1.46297058
O       4.26863099     0.79760500     4.79949700     0.18238590    -1.04391481    -0.92660793
O       1.09517100     4.68569198     4.21097702    -1.19232819     1.41970173     1.94130033
O       0.17248702     3.30486200     2.53381000     0.47583167    -0.54534764    -0.88186789
O       4.93395401     1.86371698     6.82067501     2.18541973     1.02967809     3.41207936
O       2.66612400     1.91534298     2.21591000     0.37377529     0.18780527    -0.38137907
O       2.54697498     3.66930500     7.01484099    -1.18988667    -1.54954403    -0.16986154
O       0.15351400     0.59616702     1.97210602     0.20944291     0.22912420     0.59848182
O       5.07201302     4.61448399     6.82116101    -0.53406023     0.50773470     0.03102294
O       2.36558402     0.79913798     6.91468298     0.44902328    -0.07840248     0.51929952
O       2.78968900     4.59969301     2.40125602     2.18202459     0.86888021    -0.56749590
