# total energy = -19516.78550044 eV

CRYSTAL
PRIMVEC
        5.17600016     0.00000000     0.00000000
        0.00000000     5.50899976     0.00000000
        0.00000000     0.00000000     9.26300011
PRIMCOORD
23 1
Ti      1.90434001     3.24960103     3.38649701    -0.76966105    -0.10845920     2.15498377
Ti      3.31584698     2.28269598     5.89550998     0.49605623    -0.57100829    -2.07670548
Ti      4.33065802     2.02198400     1.45141302    -0.31914935     1.07411551    -0.66668575
Ti      0.99546501     3.21345399     7.78508901    -1.75088282     1.55801582     0.92438881
Ti      1.86933202     0.28228399     1.34594000     0.72191564    -0.34539364    -0.90277096
Ti      3.37516198     5.24753101     7.86781598     0.75516105    -0.89071943     1.70064550
Ti      0.72640002     0.60050098     5.90601298    -1.10697859    -0.87184521    -2.03430720
Ti      4.50402999     4.90147898     3.48735301     0.59960179    -0.76676264     2.28578175
O       1.64824299     1.73175102     4.74471001     0.90543154     1.46258440    -0.95424575
O       3.66952402     3.25050200     4.36301002    -0.49099707     1.19431746    -1.02901089
O       4.90347499     2.77275602     9.20604502     0.64034505    -0.22623608    -0.93858953
O       3.64027798     0.42393300     0.34524799    -0.02615584     1.25263704    -0.29223375
O       1.77847102     4.64091602     9.17423703    -0.67875272    -0.68339227    -0.76398045
O       4.14355698     0.62058299     4.91622800     0.17657032     0.03021844    -0.09621689
O       0.88413099     4.67330998     4.49530502     0.81650785    -0.42375961     0.57624382
O       0.33014501     3.35448703     2.40910197    -1.57562557     0.17359092     0.01303447
O       5.10147899     2.35127999     6.44722700     0.51849528    -0.48108829     1.63966637
O       2.44759099     2.16304201     1.94961901     1.25713570    -0.84146838    -1.19811472
O       2.57126601     3.84772298     6.85425803     0.11642217    -1.22695325    -0.02469623
O       0.04708799     0.58431202     2.15759699     1.66568260    -0.11407629     0.16726009
O       5.14802399     4.72791800     7.12931902    -0.37322044     0.97662824     1.09172346
O       2.37162601     1.05088199     7.07823399    -1.29818878     0.88885846     0.68793619
O       2.71930600     5.00879100     2.71764702    -0.27971273    -1.05980372    -0.26410690
