# total energy = -19058.21595153 eV

CRYSTAL
PRIMVEC
        7.60600008     0.00000000     0.00000000
        0.00000000     7.60600008     0.00000000
       -1.89786986    -1.89786986     4.85670466
PRIMCOORD
22 1
Ti      4.11945402     6.72505998     1.53293098    -2.74024986    -1.61268752    -0.43963284
Ti      4.20501298     2.73354901     1.94447599    -6.96182463     1.35548326    -0.90910925
Ti      0.24796801     6.33667801     1.07199399    -2.64661384    -0.93156527    -1.65264608
Ti      0.29272800     2.37403800     0.39241202    -2.07309539     0.68657350    -0.09917957
Ti     -1.32446176     2.46082820     3.68431479    -8.30400886    16.18565191    10.57298510
Ti     -0.66272878     1.26743624     2.67495782     3.93532065   -14.13812640   -10.91571868
Ti      1.10666420     2.77335722     4.33971182     5.96584189    -0.31646564     0.20391658
Ti      0.87481921    -0.50235976     4.16704182     1.82465474    -1.88061765     1.50315591
O       3.74518901     4.54816501     1.52891399     0.04149376     0.37005104     0.59186817
O       3.27634400     1.00220599     1.16109802     1.01069177    -0.83049800    -0.33203933
O       0.15390602     4.26136798     0.87087197     1.66677609     1.08814500    -1.52624237
O      -0.26485200     0.56199698     0.68283699     1.50484873    -0.24633980     2.79124719
O       5.73941121     4.25809724     4.03592979     0.87703087    -0.38787934     1.43919584
O       5.07038622     1.07209321     3.61485081    -1.55375678    -0.27308211    -0.83094717
O       1.41942420     4.46669325     4.75049879    -0.66020837     2.36104799     0.43084274
O       1.78426620     1.08103223     4.56631981    -1.21573115    -3.34006299     0.86939263
O       2.72888320     2.45506123     3.19086881     1.29596657     2.28642530    -1.12182543
O       0.20217725     2.99160823     2.67407981     2.23375083    -1.20978368     0.87524601
O       5.67639001     6.41640799     1.11334401     2.33364568     0.05533890     0.19432353
O       5.94314900     2.54759401     1.55965803     0.11071560    -0.83090783    -0.70403284
O       1.56056123     6.42686924     2.67556579     0.07004099     0.35676538    -2.07535153
O      -0.98103578    -0.62127177     3.53187380     3.28471072     1.25253420     1.13455086
