# total energy = -19518.04524372 eV

CRYSTAL
PRIMVEC
        7.60600008     0.00000000     0.00000000
        0.00000000     7.60600008     0.00000000
       -1.89786986    -1.89786986     4.85670466
PRIMCOORD
23 1
Ti      3.76975400     6.74059298     1.26568302     1.06679018    -0.63631793    -1.11575866
Ti      3.73820599     2.86216898     1.30006499    -0.03976778     0.69334219     0.71973792
Ti      0.04174499     6.63717698     1.08753497    -1.20838911     0.16620285     0.52301374
Ti     -0.08895401     2.79545698     1.15083701     0.10231606     0.08667218     0.30718215
Ti      5.81843224     2.74259720     3.64393682    -2.11417855    -0.22235757     1.49221175
Ti      5.73043425    -1.01665978     3.50091180     0.75076986     0.59042578     0.10901996
Ti      1.91044724     2.87763424     3.71073079     2.12737037    -0.06873641     0.51631782
Ti      1.92887923    -0.93182076     3.64053379    -0.63486114     0.07441855     0.07959136
O       4.01888298     4.81498898     1.00156701    -1.39414727    -0.66234033    -0.61239766
O       3.63665799     1.01593401     0.77970500     0.18947392    -0.08814619    -0.17947361
O      -0.28564602     4.68138998     0.75686000     1.38054921     0.26427402     0.45406907
O       0.07024500     0.95232003     0.65273199     0.08346010    -0.67018554     0.52789215
O       5.71258425     4.71143222     3.99030582     0.53476035    -0.21625325    -0.27512022
O       5.58305325     0.84999625     4.03701979     1.12542112     1.21559206    -0.48534989
O       2.03650621     4.76645925     4.04459581    -0.76158469     0.79318562     0.23050488
O       1.95592622     0.99662920     4.10333782    -1.03057952    -0.38208073     0.71318983
O       3.77836324     2.73698925     3.44420681    -0.55976948     0.48075533    -1.71109370
O       3.81803921    -0.72846175     3.13473681    -0.15095184    -0.78762715     0.70753520
O       0.00254624    -0.98282477     3.12260484     0.32141218     0.04713502     0.35960979
O       5.76840599     6.89061102     1.46444401    -0.38177065    -0.45030215     0.98938169
O       5.60221301     2.78193402     1.84866702     1.56911116    -0.39120300    -2.10552961
O       1.90920997     6.64617098     1.63846400    -0.33708358    -0.26204847    -0.49954599
O       1.80211302     2.84766799     1.81378900    -0.63835064     0.42559512    -0.74498770
