# total energy = -19074.18565431 eV

CRYSTAL
PRIMVEC
        5.17600016     0.00000000     0.00000000
        0.00000000     5.50899976     0.00000000
        0.00000000     0.00000000     9.26300011
PRIMCOORD
22 1
Ti      1.55845399     3.26466400     3.41332497     0.99461157     0.59313778    -1.92512218
Ti      3.75303999     2.09634398     5.83085902    -0.84139999     0.11482397    -0.14441043
Ti      4.46252201     2.26727803     1.25207899    -1.24566241    -0.63874377    -0.79986612
Ti      0.86113802     3.12441102     7.95348401     0.67346473     0.68240960     0.81976749
Ti      1.76504500     0.56231698     1.35406700     0.61053104     0.90935916    -1.35942271
Ti      3.26844900     5.11841901     8.15932602    -0.59272075    -0.02733649     1.91268986
Ti      1.54454001     0.27200002     5.76980498    -0.24876358    -0.22357987    -0.08496753
Ti      4.13454599     4.99915198     3.43551798     0.82467136     0.27844929    -0.13349018
O       3.12056200     3.14624800     4.45005899     0.64027794     1.12185937     0.51837110
O       0.87057902     1.93063102     0.26960898     0.10476041    -0.04212163    -1.71694425
O       4.45418398     3.72192400     8.76849698    -0.68806526    -0.09193677    -0.35517772
O       3.45363198     0.87308801     0.34210701     0.05275777    -0.95122059    -1.16627854
O       1.70734002     4.67253399     9.14230298    -0.03544061    -0.02635716     0.08160325
O       3.20090000     0.54008799     4.80167801     0.12583241    -0.45679753    -0.30795914
O       0.63026497     4.64853300     4.41686200     0.23059359     0.31723954     1.77681858
O       5.07987802     3.61148302     2.33222400     0.12962530     0.33162718     0.64915597
O       0.27080498     1.66688998     6.40858098     1.21446823     0.33719336     0.27807185
O       2.72089898     2.18762399     2.12792899    -1.66493595     0.00284416     0.84466709
O       2.13640101     4.31441599     6.79880798    -0.54363194    -1.90380361    -0.29567543
O       5.14071298     0.83153400     2.36187200     0.70251846    -0.27964974     0.73703990
O       2.76963001     1.21495699     7.14673001    -0.21853279     0.95321911     0.14300995
O       2.47170200     4.84329700     2.53636699    -0.22495927    -1.00061561     0.52811867
