# total energy = -19516.11172450 eV

CRYSTAL
PRIMVEC
        5.17600016     0.00000000     0.00000000
        0.00000000     5.50899976     0.00000000
        0.00000000     0.00000000     9.26300011
PRIMCOORD
23 1
Ti      1.91193598     3.24911000     3.31516101    -1.43855126     0.73121404     3.22059510
Ti      3.31296201     2.29236600     5.91574101     0.17952966    -0.69420351    -1.52777552
Ti      4.29634501     1.99907602     1.44407698     2.17035074     1.30455149    -2.01706897
Ti      1.06042798     3.21589799     7.79744498    -2.88919237     1.19590306     0.84845099
Ti      1.90553399     0.28764398     1.36071998    -0.58064813     0.46786742    -1.74016492
Ti      3.36824902     5.25332301     7.90133401     0.37162328    -0.14891501     0.89368314
Ti      0.70005298     0.61751101     5.90023098    -0.84926603    -2.30312256    -1.47654807
Ti      4.46409001     4.88176099     3.51667700     1.82001467    -0.34391346     2.35831362
O       1.67005303     1.66525598     4.85102902     1.38471492     2.45208051    -2.71458947
O       3.62596300     3.22742998     4.36806302    -0.13274713     1.41094095    -1.13189156
O       4.93651999     2.77942402     9.05802801     0.09206198    -0.79974116     1.23571815
O       3.60621098     0.54697300     0.36609599     0.04965008     0.54961696    -0.77763352
O       1.74823299     4.72373999     9.16639001     0.00325785    -1.21402883    -0.79209470
O       4.10020101     0.60995600     4.88223699     0.17610083     0.06978568    -0.03498347
O       0.89979701     4.71050299     4.54816099     0.11276888    -1.17853859    -0.67445203
O       0.30518298     3.24820299     2.35757498    -1.02576204     0.60036618     0.73552038
O       5.13052002     2.24921498     6.48513599    -0.74425417     0.72749005     1.38149949
O       2.52999199     2.21957402     1.96207700     0.33888232    -1.35844774    -1.28157276
O       2.57261600     3.93417700     6.82410799     0.48944284    -1.67335143    -0.14738186
O       0.12446000     0.54995201     2.09116202     0.51748741    -0.11584187     0.76214931
O       5.15012302     4.71805398     7.25132898    -0.57104325     1.14955608     0.17634637
O       2.26780397     1.05494199     7.03764001     0.47188682     0.59899398     2.15608729
O       2.74142698     4.97329098     2.66169198     0.05369237    -1.42826196     0.54779250
