# total energy = -4975.95256290 eV

CRYSTAL
PRIMVEC
        3.82718835     0.00000000     0.00000000
        0.00000000     5.99663037     0.00000000
        0.00000000    -0.00007782     5.99663037
PRIMCOORD
6 1
Ti      1.91359411     2.99827621     2.99831512     0.00000000     0.00000000     0.00000000
Ti      0.00000000     0.00000000     0.00000000     0.00000000     0.00000000     0.00000000
O       1.91359411     1.16863975     1.16865492     0.00000000    -0.95691507    -0.95691507
O       1.91359411     4.82791266     4.82797531     0.00000000     0.95691507     0.95691507
O       0.00000000     1.82960490     4.16697125     0.00000000     0.95676029    -0.95676029
O       0.00000000     4.16694751     1.82965898     0.00000000    -0.95676029     0.95676029
