# total energy = -19518.06869953 eV

CRYSTAL
PRIMVEC
        5.17600016     0.00000000     0.00000000
        0.00000000     5.50899976     0.00000000
        0.00000000     0.00000000     9.26300011
PRIMCOORD
23 1
Ti      1.89211099     3.25151300     3.39361101    -0.93295058    -0.59174013     2.73551028
Ti      3.43301201     2.20456899     5.84551702     0.41831633     0.69581019    -2.17980135
Ti      4.23340800     2.16564599     1.48527698     1.24163091    -0.63501644    -0.72102990
Ti      0.86331098     3.36578999     7.82004799    -1.73086241     1.31346602     0.36938179
Ti      1.88182802     0.19764802     1.35559098     0.54285984     0.50957072     0.05320052
Ti      3.30141700     5.14615901     7.93300400     0.61526779    -0.65776068     1.33045151
Ti      0.83488401     0.57426098     5.83640199    -1.04520242    -0.00927269    -2.27266346
Ti      4.48840200     4.90447302     3.41716500     0.23652667     0.63932458     1.84521715
O       1.74448599     1.98631301     4.83508602    -0.65318694    -0.16689885    -0.09879082
O       3.50685600     3.57202100     4.51581302     0.64922307     0.59405901     0.07445095
O       4.93002000     3.11970198     0.03346099    -0.67367941    -0.74715977     0.25650235
O       3.59335499     0.71167202     0.22417298    -0.41582981     0.38376866    -0.19502982
O       1.68123301     4.76784098     9.06831098     0.07181197    -0.31746400    -0.88816838
O       4.27144103     0.80692900     4.79517902    -0.08046013     0.04898596    -0.38329223
O       1.00869402     4.89591802     4.37599100     0.58574405    -1.06082007     0.22097406
O       0.15769202     3.37609302     2.62167099     0.00413459    -0.90905783    -0.65204923
O       5.12959301     2.05790301     6.79126000     0.05430378    -0.03534754     0.59251300
O       2.48744799     1.85625600     2.27477599     0.62731778    -0.22984488    -1.16110342
O       2.59602198     3.42296701     7.10467999     0.37507473     0.14753175     0.87803900
O       0.16768098     0.63787798     2.16128800    -0.33378536     0.65425215    -1.06139626
O       5.05545999     4.76691900     6.98036700    -0.09895306    -0.12378735     0.99309951
O       2.51416800     0.76728002     6.78516102    -0.42701900    -0.41294040     0.92319710
O       2.83789001     4.42499202     2.27429799     0.96971814     0.91034106    -0.65921233
