# total energy = -19075.59732589 eV

CRYSTAL
PRIMVEC
        7.60600008     0.00000000     0.00000000
        0.00000000     7.60600008     0.00000000
       -1.89786986    -1.89786986     4.85670466
PRIMCOORD
22 1
Ti      3.70679498     6.83571899     1.19446799     0.16486537    -0.74442720    -0.46219530
Ti      3.87468297     2.98584199     1.11303502     0.27681432     0.64965887     0.90911079
Ti     -0.00667298     6.57446000     1.10101301    -0.57730878    -0.07429977     0.82141737
Ti     -0.00873799     2.72126803     1.14390600    -0.26007232     0.53027094     0.06421075
Ti      5.72883825     2.69264224     3.65892884    -0.67827963     0.08493488    -0.63414458
Ti      6.13589520    -1.15078377     3.70063880    -0.92552703     0.69200290     0.64554074
Ti      1.89962123     2.92579524     3.59650682     0.79356923    -0.70983402    -0.28554708
Ti      1.51892625    -0.89277277     3.74948879    -0.05727957     0.55613162    -1.13979848
O       3.90060901     4.91912202     0.67797702    -0.75891666    -0.50665124     1.28495068
O       3.96307701     1.11579500     0.65147101    -0.12064520    -0.81543493     2.46360008
O      -0.05880699     4.71531199     0.85544598     0.09033703    -0.70654430     0.10040907
O       7.30456098     0.83282201     0.65478700     0.49516534     0.19465598     0.96019786
O       5.74371421     4.58179925     4.06733382     0.69796195     1.69356057    -0.90789877
O       5.56840922     0.86081925     4.01452383     0.72680460    -0.92880930     0.66016003
O       1.92026724     4.86980423     4.16190980    -0.46273601     0.82237665    -1.51769139
O       2.22462322     1.08163121     4.01703282    -1.37914205    -1.09323013     0.14512186
O       3.77354223     2.85546420     3.21401883     0.57473639     0.69896005    -0.78030773
O      -0.01617277     2.62449923     3.34935380     0.80518213     0.27363695    -0.89931128
O       5.45166399     6.60223800     2.03299797     0.34278269     0.34336016    -1.11820969
O       5.74656500     2.94643601     1.67566199    -0.15717622    -0.32727867     0.00044506
O       1.78764902     6.87710901     1.84464601     0.89759044    -0.57572215    -0.46372100
O       1.90475600     2.90019899     1.52793898    -0.48872575    -0.05731891     0.15366127
