# total energy = -39040.41797304 eV

CRYSTAL
PRIMVEC
        7.60629642    -0.00000847    -0.00005503
       -0.00000847     7.60629642    -0.00005503
       -3.80314186    -3.80314186     9.70738094
PRIMCOORD
46 1
Ti      1.89002208     4.82179139     6.12611945    -0.07006722     0.06505793     0.00568445
Ti      3.79159812     6.72340585     1.27244986    -0.07005205     0.06560352     0.00585569
Ti      1.93701911     0.87764288     6.07701999    -0.09224607    -0.04157013    -0.07312246
Ti      3.83858592     2.77922215     1.22331767    -0.09236872    -0.04110476    -0.07289800
Ti     -1.89018463     4.74417594     6.07217480     0.05325117    -0.03538379     0.04862524
Ti      0.01139460     6.64576232     1.21850473     0.05321646    -0.03546067     0.04870288
Ti     -1.93514105     0.95921494     6.02833806     0.06194175     0.02155871     0.00969820
Ti     -0.03354992     2.86077795     1.17463963     0.06188468     0.02173200     0.01005559
Ti      3.80802470     0.96100967     8.50650563    -0.02195954     0.01553872    -0.11196490
Ti      5.70960629     2.86257161     3.65277658    -0.02228942     0.01552767    -0.11205694
Ti      3.81249927    -2.86318517     8.49862723    -0.02673460    -0.01451851     0.03375397
Ti      5.71405591    -0.96161369     3.64491331    -0.02652120    -0.01448483     0.03384113
Ti     -0.00623397     0.96613618     8.34485108     0.02839784    -0.03221465     0.13391313
Ti      1.89533546     2.86765804     3.49119183     0.02871949    -0.03206810     0.13371773
Ti     -0.00338307    -2.86077078     8.55760665     0.02322273    -0.02160962     0.16538987
Ti      1.89818700    -0.95912114     3.70388254     0.02296742    -0.02206264     0.16522224
O       1.89351525    -0.95422252     5.67570099     0.01560480     0.01212970     0.02940649
O       3.79509593     0.94743516     0.82206551     0.01555621     0.01067805     0.02932344
O      -1.90191219     2.85467066     5.62447398     0.00400424     0.00035173    -0.05425544
O      -0.00034255     4.75624690     0.77080765     0.00399421     0.00027125    -0.05436060
O      -1.89968655    -0.95138228     5.67052466     0.00492598    -0.00416956     0.00852372
O       0.00188543     0.95018694     0.81689560     0.00496403    -0.00412739     0.00825762
O       3.82210619     2.85585094     8.93186430     0.04419754     0.01364382     0.01569685
O       5.72367478     4.75741324     4.07814623     0.04418031     0.01368830     0.01570096
O       3.78011908    -0.95410339     8.88058299     0.00675866    -0.00765752     0.00633212
O       5.68168168     0.94746652     4.02685773     0.00678566    -0.00778248     0.00630743
O      -0.01742303     2.74290330     9.00494269    -0.03473536     0.02044722    -0.03237509
O       1.88415770     4.64441377     4.15124331    -0.03472199     0.02062514    -0.03208172
O       0.02320917    -0.84766717     8.95065750    -0.02079072    -0.03089644    -0.13034007
O       1.92479616     1.05376106     4.09689620    -0.02078712    -0.03052980    -0.13050616
O       1.91833564     0.99210871     8.05948942     0.01193249     0.02640935    -0.05049983
O       3.81990896     2.89367644     3.20578836     0.01172526     0.02625894    -0.05047026
O       1.88108818    -2.88868829     8.13343988    -0.01500573    -0.00675352    -0.03475079
O       3.78264781    -0.98714148     3.27965613    -0.01473346    -0.00682371    -0.03420366
O      -1.92090699     0.93327759     8.01291606     0.02043025    -0.02488520     0.05376667
O      -0.01933130     2.83480799     3.15919412     0.02057526    -0.02492943     0.05393277
O      -1.88313925    -2.83676875     8.08630560     0.01158128     0.01936170     0.05336044
O       0.01844381    -0.93525022     3.23257981     0.01129229     0.01946634     0.05354684
O       3.78262135     4.64380972     6.50136892    -0.02081926     0.00068057    -0.01927711
O       5.68419064     6.54540623     1.64768878    -0.02092313     0.00058570    -0.01970289
O       3.78637557     1.06723922     6.44132850    -0.04786959     0.02828806    -0.08119110
O       5.68792415     2.96882888     1.58765215    -0.04723350     0.02838936    -0.08139267
O       0.01723071     4.63732560     6.48565290     0.03816136    -0.00627041     0.09846866
O       1.91879375     6.53891203     1.63196804     0.03844881    -0.00626475     0.09807425
O       0.02310507     1.06623215     6.41688018     0.02577969     0.00255773    -0.07483713
O       1.92469431     2.96778509     1.56319548     0.02535931     0.00271714    -0.07487081
