# total energy = -19073.10500365 eV

CRYSTAL
PRIMVEC
        7.60600008     0.00000000     0.00000000
        0.00000000     7.60600008     0.00000000
       -1.89786986    -1.89786986     4.85670466
PRIMCOORD
22 1
Ti      3.74441700     6.68219102     1.32746098     1.94904321    -0.40175147    -0.67109957
Ti      3.73717399     2.77456501     1.30075102     1.25636180     0.09774592     1.78648644
Ti      0.22084398     6.77453800     1.12980798    -2.23227707    -2.53887661    -0.78004625
Ti      0.21478400     2.76348901     0.88223198    -1.73808515     1.57840750     1.80780784
Ti      5.76635422     2.97785824     3.33470680     2.12785322     0.14739086     1.58573386
Ti      5.89352720    -0.99784377     3.44094480     0.85919949     1.87044096    -1.18924287
Ti      1.94497320     2.68471421     3.83045482    -1.43039469     2.68924018    -0.56759566
Ti      1.16644425    -0.78794778     3.98274880    -0.22050355    -4.61590553     0.06782958
O       3.59335298     4.58835602     1.00756999     0.36835977     0.83334061    -0.07683693
O       4.13509300     0.90254101     0.81566699    -1.77079217    -0.20917655     0.89015738
O       0.13915102     4.92917199     0.49976399     0.83782899    -0.71622142     0.90154275
O      -0.14953798     0.95487500     0.75075101     0.99046721     1.14528110    -0.71253214
O       5.66201724     4.91266923     3.82334680    -0.19289374    -1.64211715    -0.25331161
O       5.93207221     0.97355321     3.87061180    -0.21927122    -0.69439531     0.04562244
O       1.84756522     4.59675623     4.38367582    -0.69902767     0.22686729    -1.23422613
O       1.64458325     0.84514925     4.19595881     0.17624996     2.75726054     0.16026618
O       3.78848122     2.73661824     3.29809181     0.41117174    -0.08817216    -0.11150364
O       0.02124821     2.95354720     3.22552780     0.79996973    -0.08292839    -0.15846152
O       5.87889699     6.60184699     1.37875402    -1.04345664    -0.06359240     2.54138575
O       5.85888102     2.87320799     1.41176801    -1.07510641     0.51826723     0.45366592
O       1.79692899    -0.79335698     2.32599400     1.54420127    -0.52528891    -2.88839070
O       1.94090499     2.56538998     1.84401698    -0.69889809    -0.28581679    -1.59725112
