# total energy = -4979.96288512 eV

CRYSTAL
PRIMVEC
        4.67787230     0.00000000     0.00000000
       -0.00001041     4.67787230     0.00000000
       -2.33897284    -2.33897804     5.97000543
PRIMCOORD
6 1
Ti     -0.00020600     3.50858140     1.49250119    -0.00055124     0.00055124     0.00000000
Ti      2.33909492    -1.16968728     4.47750384     0.00055124    -0.00055124     0.00000000
O       0.00004673     1.16946013     0.97246504    -0.00052605    -0.00248420    -1.33668875
O       2.33884206     1.16943387     4.99754007     0.00052605     0.00248420     1.33668875
O      -0.00002642    -1.16943982     3.95746769    -0.00248420    -0.00052605    -1.33668875
O       2.33891515     3.50833375     2.01253742     0.00248420     0.00052605     1.33668875
