# total energy = -19921.52337139 eV

CRYSTAL
PRIMVEC
        6.26007978     0.00000000     0.00000000
        2.85373715     6.02051986     0.00000000
        0.00000000     0.00000000    11.51376614
PRIMCOORD
24 1
Ti      3.96009976     3.56775446     4.27152509     0.24767035    -2.59700953     0.61204619
Ti      5.15371696     2.45276532     7.24224111    -0.24767035     2.59700953    -0.61204619
Ti      6.56153043     2.45276735     1.48531202    -1.05912675    -1.20586300     0.49458684
Ti      2.55228640     3.56775265    10.02845437     1.05912675     1.20586300    -0.49458684
Ti      2.53323133     0.55749462     1.48535817     0.24767035    -2.59700953    -0.61204619
Ti      6.58058543     5.46302534    10.02840822    -0.24767035     2.59700953     0.61204619
Ti      1.12541782     0.55749241     7.24219497     1.05912675     1.20586300     0.49458684
Ti      7.98839900     5.46302754     4.27157130    -1.05912675    -1.20586300    -0.49458684
O       2.98620407     2.11992736     5.87538674     1.79505388     2.11006144    -0.94789718
O       6.12761265     3.90059242     5.63837953    -1.79505388    -2.11006144     0.94789718
O       2.15358257     2.11995168     0.11854069     0.14790096    -1.07954080     1.68153372
O       6.96023424     3.90056821    11.39522526    -0.14790096     1.07954080    -1.68153372
O       4.70074419     0.89033246     0.11850329    -1.79505388    -2.11006144    -0.94789718
O       4.41307254     5.13018738    11.39526260     1.79505388     2.11006144     0.94789718
O       5.53336578     0.89030819     5.87542408    -0.14790096     1.07954080     1.68153372
O       3.58045090     5.13021167     5.63834213     0.14790096    -1.07954080    -1.68153372
O       1.96324783     3.66202150     3.11015549     0.66357806     2.88565711     2.70125906
O       7.15056883     2.35849829     8.40361078    -0.66357806    -2.88565711    -2.70125906
O       4.47540123     2.35844226     2.64676424     0.79103643     2.00649608     1.55596125
O       4.63841549     3.66207751     8.86700178    -0.79103643    -2.00649608    -1.55596125
O       0.53637937     0.65176148     2.64672746     0.66357806     2.88565711    -2.70125906
O       8.57743729     5.36875831     8.86703856    -0.66357806    -2.88565711     2.70125906
O       3.21154702     0.65181750     8.40364743    -0.79103643    -2.00649608     1.55596125
O       5.90226970     5.36870228     3.11011871     0.79103643     2.00649608    -1.55596125
