# total energy = -19514.38560156 eV

CRYSTAL
PRIMVEC
        5.93400000     0.00000000     0.00000000
        0.00000000     9.29699974     0.00000000
        0.00000000     0.00000000     4.64899994
PRIMCOORD
23 1
Ti      4.60274800     6.87049303     2.35663500    -1.06635438     0.93645885     1.05970422
Ti      4.49069001     2.50457301     2.42722598     0.46175102    -1.00583136    -0.30656766
Ti      1.40835800     7.08574100     2.23794901    -0.61317594    -0.40405981    -0.56825463
Ti      1.63122697     2.22634802     2.07559002    -1.26434379     1.05998986     2.11481567
Ti      3.03159799     4.58321199     4.47308100    -3.56985902    -0.67912707     0.50466094
Ti      3.00886999     9.26496499     0.31267099     0.64370625     0.10340209    -3.14545792
Ti      5.85451102     4.62897598     0.23376199     3.34819719     0.45463780    -0.53679280
Ti      5.92408999     9.28765802     4.41840101    -1.68140722    -0.78245743    -1.77915957
O       4.40167398     5.34870298     1.17824098    -0.99189109     0.92974339    -0.53528588
O       4.55370502     0.86161100     0.80802397    -1.40360559     0.67921757     0.33871109
O       1.55007097     5.59434700     1.04738503    -0.17493510     0.36647053    -0.86005978
O       1.18857999     0.83729901     0.78627802     2.90649102     1.06581676     1.51670306
O       4.20627301     8.27255598     3.67914701     0.33609216     0.62539845     0.76841715
O       4.50328501     3.45693701     4.10839998    -0.53654289     1.39293088    -1.44809546
O       1.47696699     8.56942299     3.47490898    -0.15101817    -0.15040291     1.00319392
O       1.44452599     3.64099502     3.84640401     0.93389675     1.36993132    -0.29508022
O       3.07421502     1.38786799     3.02442902    -1.12120245     0.73023676    -0.40768815
O       0.08376998     6.27374598     3.41629699    -0.58379079    -1.12375325    -0.02982224
O       5.83507000     1.58721102     3.17386200     0.78546974    -1.84914142    -0.04194499
O       2.87699198     7.84452302     1.35349999     0.80686132    -0.53406692     0.68860827
O       2.71721098     3.42296701     1.27103899     1.26326778    -2.00040385     2.25563710
O       5.67271900     7.81734199     1.29457197     1.72874047     0.00436908    -0.19496940
O       0.06305703     3.49458300     1.65490998    -0.05634729    -1.18935934    -0.10127271
