# total energy = -19954.85583797 eV

CRYSTAL
PRIMVEC
        4.93077641     0.00000000     0.00000000
        0.78279913     5.18912516     0.00000000
        0.00000000     0.00000000     8.85006765
PRIMCOORD
24 1
Ti      2.25105531     3.07507072     3.28331200     1.29990962    -0.49141384     0.30016664
Ti      3.46252017     2.11405430     5.56675584    -1.29990962     0.49141384    -0.30016664
Ti      4.57138949     2.11405605     1.14168653    -1.93885959    -0.62135513     1.29685335
Ti      1.14218601     3.07506916     7.70838142     1.93885959     0.62135513    -1.29685335
Ti      1.85965586     0.48050823     1.14172202     1.29963451    -0.48593739    -0.29360158
Ti      3.85391963     4.70861694     7.70834593    -1.29963451     0.48593739     0.29360158
Ti      0.75078652     0.48050632     5.56672035     1.93881793     0.62444406     1.28858287
Ti      4.96278897     4.70861885     3.28334750    -1.93881793    -0.62444406    -1.28858287
O       1.83625873     1.82717912     4.51612182    -0.90726397    -0.47042772    -0.50542250
O       3.87731675     3.36194590     4.33394598     0.90726397     0.47042772     0.50542250
O       1.18043520     1.82720010     0.09111640     1.05509063    -1.01993412     0.04470610
O       4.53314033     3.36192497     8.75895120    -1.05509063     1.01993412    -0.04470610
O       3.48591728     0.76738326     0.09108770     0.90658622     0.47023335    -0.50497976
O       2.22765819     4.42174176     8.75897990    -0.90658622    -0.47023335     0.50497976
O       4.14174086     0.76736233     4.51615058    -1.05610647     1.02051467     0.04421116
O       1.57183457     4.42176274     4.33391727     1.05610647    -1.02051467    -0.04421116
O       0.65528931     3.15632007     2.39062410    -0.61523256    -0.50202299    -1.00709454
O       5.05828617     2.03280489     6.45944374     0.61523256     0.50202299     1.00709454
O       2.95119348     2.03275663     2.03443797     0.44601149    -1.01076813    -0.85523408
O       2.76238200     3.15636834     6.81562972    -0.44601149     1.01076813     0.85523408
O       0.26388984     0.56175743     2.03440967    -0.61587097    -0.50245699     1.00704235
O       5.44968564     4.62736753     6.81565798     0.61587097     0.50245699    -1.00704235
O       2.37098253     0.56180570     6.45947195    -0.44708698     1.01103141    -0.85450131
O       3.34259295     4.62731927     2.39059585     0.44708698    -1.01103141     0.85450131
