# total energy = -19517.87634245 eV

CRYSTAL
PRIMVEC
        7.60600008     0.00000000     0.00000000
        0.00000000     7.60600008     0.00000000
       -1.89786986    -1.89786986     4.85670466
PRIMCOORD
23 1
Ti      3.76714098     6.60274701     1.29186402     1.15858837    -0.46916479     0.25789897
Ti      3.66538501     2.71295899     1.09994402     0.47968987     1.34999652     2.21654269
Ti      0.07947200     6.74313901     1.17341600    -1.32027276    -0.11928638     1.80860359
Ti     -0.05200399     2.96189799     1.04841200    -0.39670465     0.03646983    -1.12474878
Ti      5.66327922     3.09765423     3.54478980    -1.46727204    -3.76533210    -0.40107682
Ti      5.75055822    -0.95802577     3.55007581     0.16287970     1.91749191     1.63086317
Ti      1.98793022     2.73161021     3.77566280     0.80500936     0.54243946    -0.55886676
Ti      1.93807622    -1.08585976     3.64481780    -0.16632318    -0.09569367     0.25859882
O       3.62102498     4.61012902     0.92241400    -0.07642838     0.77770320    -0.66854955
O       3.88167499     0.94699798     1.02421902    -0.23340535    -1.83220607    -0.95501863
O      -0.03085701     4.81974100     0.74370502     0.58356941     1.28754363     0.43519305
O      -0.12432099     1.14050302     0.63589198     0.07745374    -2.27351681     0.78276982
O       5.91149621     4.76075223     4.20101383     0.57884887     1.87409347    -1.95194959
O       5.82350023     1.12680024     3.87797880     0.33260780    -0.25482444     0.31688627
O       1.88495323     4.63205923     4.28483080    -0.42117719     0.86506829    -1.70522361
O       1.94052520     0.81194020     4.02860381    -0.55208959     0.03882290     0.41705597
O       3.78472723     2.81262021     3.45578780    -0.20072790     0.42967752    -1.28346329
O       3.81259323    -1.21108278     3.23574383    -0.63344986     0.01252513     0.72317677
O      -0.03135476    -0.97115979     3.23758579     2.20959968    -0.26106811     0.20478999
O       5.73960002     6.65656000     1.74038698    -0.23854447    -0.01706082    -2.61463651
O       5.70018901     3.00692198     1.50663701    -0.28628550     0.06545105     1.27493314
O       1.94634800     6.75360301     1.69477799    -1.28053455    -0.07634045     0.16124525
O       1.69592201     2.78872998     1.75582800     0.88496812    -0.03278929     0.77497526
