# total energy = -39482.88321894 eV

CRYSTAL
PRIMVEC
        7.60629642    -0.00000847    -0.00005503
       -0.00000847     7.60629642    -0.00005503
       -3.80314186    -3.80314186     9.70738094
PRIMCOORD
47 1
Ti      1.90154788     4.66508989     6.11597930    -0.00003831     0.06076779    -0.00716772
Ti      3.83710880     6.65570463     1.16895676     0.01272362    -0.00013138     0.01430691
Ti      1.90147427     1.03947756     6.11609571    -0.00008613    -0.06025151    -0.00715358
Ti      3.78825102     2.85250597     1.23565359    -0.01306944    -0.00006608     0.02247274
Ti     -1.90163755     4.76689653     6.06139584    -0.00005682     0.03039714    -0.00240373
Ti     -0.03407100     6.65567842     1.16898202    -0.01285424    -0.00008613     0.01411279
Ti     -1.90169484     0.93819033     6.06139907    -0.00012470    -0.03043750    -0.00222786
Ti      0.01453133     2.85252661     1.23575369     0.01311880    -0.00002725     0.02260643
Ti      3.80941084     0.93555513     8.50473408     0.00114646    -0.00487816    -0.02798904
Ti      5.70505494     2.85222557     3.64313121     0.00017252    -0.00016121     0.02748742
Ti      3.80946571    -2.83731202     8.50473308     0.00106367     0.00500877    -0.02807003
Ti      5.70470791    -0.95097050     3.63048404     0.00014038    -0.00002160    -0.03367838
Ti     -0.00610378     0.93556021     8.50476589    -0.00101687    -0.00478200    -0.02800781
Ti      1.90193161     2.85210117     3.70716160     0.00014732     0.00029799     0.03787519
Ti     -0.00599083    -2.83735407     8.50471616    -0.00077467     0.00496454    -0.02807517
Ti      1.90153805    -0.95091486     3.46871545    -0.00008665     0.00004088     0.00027871
O       1.90166469     2.85230133     5.69904881     0.00028154    -0.00056821    -0.02909050
O       3.80099416     4.74861597     0.78597190    -0.00697772     0.00201472     0.01214692
O       3.80105485     0.95615599     0.78599126    -0.00699623    -0.00212527     0.01225054
O      -1.90154560     2.85239802     5.68411150     0.00006376    -0.00021674    -0.01790954
O       0.00219631     4.74859543     0.78602755     0.00688439     0.00209262     0.01214847
O      -1.90158631    -0.95076607     5.61387657     0.00003600     0.00003831     0.01320005
O       0.00217775     0.95618057     0.78604215     0.00696024    -0.00212759     0.01222123
O       3.78035238     2.85238255     8.87638156     0.00265698    -0.00006094     0.02769259
O       5.70467882     4.74966051     4.06356842    -0.00001877     0.01900483    -0.02081026
O       3.83636944    -0.95080049     8.93718078     0.01299333     0.00020235     0.00362114
O       5.70466754     0.95507546     4.06360574    -0.00005296    -0.01902746    -0.02072747
O       0.02280561     2.85239381     8.87635813    -0.00250606    -0.00010387     0.02763834
O       1.90133811     4.86783719     4.13049882    -0.00047051     0.00442281    -0.00381732
O      -0.03326744    -0.95080692     8.93719022    -0.01280461     0.00019926     0.00373221
O       1.90134597     0.83685756     4.13035266    -0.00050496    -0.00422715    -0.00326402
O       1.90158069     0.91794941     8.09199344     0.00005116    -0.02913935     0.03298701
O       3.78412323     2.85240782     3.26669331    -0.01317871    -0.00009462     0.01556932
O       1.90162263    -2.81961627     8.09198829     0.00002160     0.02924939     0.03316133
O       3.82208296    -0.95071504     3.17124161     0.01115679    -0.00016121    -0.00453131
O      -1.90156335     0.97941976     8.05187967    -0.00001157     0.00943852    -0.01323039
O       0.01894856     2.85240917     3.26665542     0.01306198    -0.00008150     0.01542842
O      -1.90153136    -2.88090445     8.05185347     0.00001774    -0.00943338    -0.01326921
O      -0.01900637    -0.95070792     3.17129061    -0.01121644    -0.00015427    -0.00447295
O       3.77965475     4.88385232     6.47092701     0.00987561     0.00440970    -0.02538734
O       5.70469550     6.65544278     1.58139459    -0.00001697     0.00002288     0.04367046
O       3.77967527     0.82083069     6.47099169     0.00931640    -0.00424721    -0.02559123
O       5.70469416     2.85235493     1.66860843     0.00006633    -0.00001594     0.01187104
O       0.02353760     4.88386462     6.47095242    -0.00981390     0.00448272    -0.02537268
O       1.90154806     6.65550094     1.56422111    -0.00000257    -0.00005888     0.01504636
O       0.02345943     0.82081553     6.47101002    -0.00929737    -0.00429143    -0.02556346
O       1.90158736     2.85234488     1.67965064     0.00002134    -0.00007713    -0.03371463
