# total energy = -19945.69295695 eV

CRYSTAL
PRIMVEC
        5.19908395     0.00000000     0.00000000
        2.12825419     5.10774127     0.00000000
        0.00000000     0.00000000     9.50469501
PRIMCOORD
24 1
Ti      3.14561937     3.02684284     3.52617405     2.65305035    -3.51330579     1.19918301
Ti      4.18171884     2.08089857     5.97852106    -2.65305035     3.51330579    -1.19918301
Ti      5.35092758     2.08090031     1.22613550    -5.57884573     0.51989474     1.54926995
Ti      1.97641068     3.02684131     8.27855966     5.57884573    -0.51989474    -1.54926995
Ti      2.08149238     0.47297219     1.22617361     2.65288939    -3.51367705    -1.19922569
Ti      5.24584587     4.63476938     8.27852156    -2.65288939     3.51367705     1.19922569
Ti      0.91228357     0.47297031     5.97848290     5.57806206    -0.52025803     1.54605761
Ti      6.41505468     4.63477126     3.52621216    -5.57806206     0.52025803    -1.54605761
O       2.39493736     1.79852258     4.85017312     0.11570174     1.08323367    -1.13894307
O       4.93240080     3.30921884     4.65452199    -0.11570174    -1.08323367     1.13894307
O       1.70343257     1.79854322     0.09785617     1.08909888    -0.69248036    -0.07419178
O       5.62390571     3.30919828     9.40683863    -1.08909888     0.69248036     0.07419178
O       3.86827379     0.75534808     0.09782531    -0.11528419    -1.08284544    -1.13919350
O       3.45906443     4.35239333     9.40686949     0.11528419     1.08284544     1.13919350
O       4.55977864     0.75532748     4.85020393    -1.08923335     0.69246133    -0.07402183
O       2.76755948     4.35241400     4.65449113     1.08923335    -0.69246133     0.07402183
O       1.48341961     3.10681793     2.56745526     0.25353966    -0.49728187    -0.48187068
O       5.84391856     2.00092349     6.93723985    -0.25353966     0.49728187     0.48187068
O       3.62215657     2.00087596     2.18492253     1.87767811    -0.80363999    -1.71084559
O       3.70518160     3.10686547     7.31977243    -1.87767811     0.80363999     1.71084559
O       0.41929259     0.55294712     2.18489214     0.25391633    -0.49715820     0.48183262
O       6.90804563     4.55479429     7.31980276    -0.25391633     0.49715820    -0.48183262
O       2.64105458     0.55299471     6.93727014    -1.87760354     0.80371866    -1.71105693
O       4.68628358     4.55474672     2.56742492     1.87760354    -0.80371866     1.71105693
