# total energy = -19958.33298799 eV

CRYSTAL
PRIMVEC
        7.60600008     0.00000000     0.00000000
        0.00000000     7.60600008     0.00000000
       -1.89786986    -1.89786986     4.85670466
PRIMCOORD
24 1
Ti      3.79948398     6.75706102     1.36123100    -0.33288034     1.37654215     0.52032977
Ti      3.67058201     3.02254297     1.18867800     0.62873446    -1.09303369     2.65130765
Ti      0.04787800     6.44014301     1.28669401    -0.21038188    -0.19589422    -0.89395285
Ti      0.18212498     2.69079599     1.14059600    -1.87383096     0.04529694    -0.53742529
Ti      5.83919520     2.75901720     3.50197481    -0.50024096    -0.18556867     0.08782686
Ti      5.61003123    -1.09793278     3.64008880     0.39816735    -0.08288880     1.06609341
Ti      1.99899125     2.96082921     3.82196083    -0.56708709     2.61478383    -3.18408927
Ti      1.74015822    -0.81260877     3.64906783    -0.14278524    -1.90730777     0.62732112
O       3.36401502     5.03142502     0.74906199     1.70587796    -0.68873966     0.11896242
O       3.60584902     0.98039002     0.76047999     0.27293144     0.08133148     0.65235622
O       0.00428401     4.56204501     0.83319900    -0.12507290     2.17015226    -1.05323069
O       0.38848399     0.72597202     0.64229000    -1.40704084     0.72461042     1.39231716
O       5.75220920     4.61710622     3.85064780    -0.50338413    -0.41198832     1.32197175
O       5.94456222     0.76566820     3.92510780    -0.88422096     1.37788272     1.31677735
O       1.86243621     4.93866120     3.59130581     0.56556552    -1.61415896     2.66385001
O       1.74443423     1.13887221     4.23372979     0.57205627    -0.86538942    -1.57303466
O       3.88601022     2.79850922     3.20837383    -2.21789637    -0.07791808     0.03535705
O       3.75222924    -0.82676775     3.27058984    -0.21829600     0.38145929    -0.06549271
O       0.01913420     2.80139821     3.17353979     1.62227388    -0.45523867    -0.12140111
O      -0.12778779    -1.01036177     3.17229982     1.95195216     0.22097174    -0.21049475
O       5.65013700     6.48085601     1.75063497    -0.65085572     0.26195797    -2.89656579
O       5.76187902     2.85847400     1.54530198    -0.83384352    -0.42298982    -0.25286758
O       1.84720802     6.70174602     1.81489101     0.20721531     0.43877512    -1.96021415
O       1.83243302     3.22793598     1.65813199     2.54304231    -1.69264757     0.29429732
