# total energy = -19070.73643924 eV

CRYSTAL
PRIMVEC
        5.17600016     0.00000000     0.00000000
        0.00000000     5.50899976     0.00000000
        0.00000000     0.00000000     9.26300011
PRIMCOORD
22 1
Ti      1.77362503     3.40293400     3.14763899     2.44778008     1.00399687     1.91741683
Ti      3.71658000     2.67334901     5.99552300    -2.50394148    -2.04127463     0.62108902
Ti      4.39340400     2.34543602     1.54046699     1.59045621    -2.65692654     0.54998257
Ti      0.86571398     2.35562999     7.90899999     3.15509288     0.24254434    -0.50657359
Ti      1.91977600     0.55450097     1.11602101    -1.65662743    -1.15103446    -1.32132126
Ti      3.33589100     0.09514199     7.63054999    -2.21219058    -1.60905095    -1.25624841
Ti      0.84361400     5.03809699     6.44237900     1.41288702     1.73292957     2.36547929
Ti      4.23836401     5.01321301     3.76196600     1.76712731     4.69847525     0.34912123
O       3.69106498     3.42365002     4.28201700    -1.55830738    -1.61602250     1.41006497
O       0.74144501     1.96817000     0.40137602    -0.18574685     1.75416098    -0.27745736
O       4.90347800     3.89195400     7.56360801    -1.84888740     0.08538740    -1.14404389
O       3.40055900     0.75211402     0.02621301     1.56956265     1.43615320     2.22427117
O       1.32907999     5.43235701     8.41485598     1.05174048     0.69354634     1.67083509
O       3.89592902     0.92332598     4.97482501     0.59017561    -1.24156407    -1.32419652
O       0.93378501     4.77224998     4.69324800     0.20497922    -1.72307607    -1.95276746
O       0.21763198     3.67475700     2.38266698    -1.94526626     1.16341767    -1.05648571
O       4.66734297     1.52003001     7.20008197    -1.13425389    -2.66936606    -0.77287827
O       2.63998698     2.03248801     2.16192598    -0.56457718     0.44361162     0.19979793
O       2.34651898     3.45322801     7.31777200     0.91467440     1.32187662    -1.52789482
O       0.02286802     0.96805098     2.41030299    -0.37650786    -0.39076643     0.29321514
O       2.03803802     1.19134600     6.49185400     0.06190679     0.30038055     0.62756049
O       2.80394202     4.87653399     2.46068400    -0.78007659     0.22260105    -1.08896672
