# total energy = -19961.17431952 eV

CRYSTAL
PRIMVEC
        5.93400000     0.00000000     0.00000000
        0.00000000     9.29699974     0.00000000
        0.00000000     0.00000000     4.64899994
PRIMCOORD
24 1
Ti      4.44879901     6.89040501     2.29050102    -0.27198476     1.60322406     0.12245166
Ti      4.45978002     2.31663000     2.30543398    -0.01411510     0.45761694     0.09863450
Ti      1.44756500     6.97278399     2.33877400     0.17556424     1.32823110    -0.15713354
Ti      1.50972999     2.27588102     2.35714100     0.07538709     0.44935727    -0.04732451
Ti      2.96643600     4.67340502     4.57531900    -0.50315428    -0.18115537    -0.09490614
Ti      2.96965801     0.05808001     0.03388200    -0.03124534    -2.02325531    -0.37729513
Ti      5.92950501     4.63318702     0.04229502     0.52827782    -0.09015114    -0.19592250
Ti      5.91890602     0.06890697     0.00531299    -0.03520767    -1.80037863    -0.81056963
O       4.42426101     5.51976503     0.89173802     0.29218567     0.18432811     0.05849570
O       4.50924201     0.89583999     0.92112302    -0.52810941     0.62132479     0.48945980
O       1.44029898     5.59615398     0.84279399     0.07574267    -0.66152092    -0.08773481
O       1.43516400     0.90929702     0.83215800     0.65079839     0.76634895     1.32329072
O       4.46182598     8.34796702     3.80733898     0.05608555     0.33000867    -0.47737999
O       4.39577101     3.76350998     3.73760802     0.42863031    -0.27768439     0.07571799
O       1.53872002     8.40035202     3.69091898    -0.25512475     0.02050404     0.35519778
O       1.48759499     3.73827701     3.67647101    -0.14407516     0.30267140     0.88694453
O       2.94795999     6.04001500     3.18844602     0.43050953    -0.26185924     0.29055019
O       2.91535701     1.40089501     3.34566400     0.59083278     0.73434616    -1.25631398
O       0.02508999     6.04393102     3.19814002    -0.43337220    -0.28815547     0.18089209
O       0.03171100     1.49974902     3.23584199    -0.40283854    -0.92393423     0.53819097
O       3.00165301     7.86982399     1.38728801     0.08936772    -0.23818606     0.50280178
O       3.01161599     3.19670098     1.48565201    -0.37507498     0.10999106    -0.66253651
O       0.03580101     7.92782902     1.43877098    -0.36699015    -0.54890785     0.09381702
O       5.92154698     3.23316298     1.48063800    -0.03208969     0.38723605    -0.84932748
