# total energy = -19937.70859482 eV

CRYSTAL
PRIMVEC
        6.30794862     0.00000000     0.00000000
        0.00002380     4.02813877     0.00000000
        0.00000000     0.00000000     9.63399747
PRIMCOORD
24 1
Ti      2.28634190     2.38707129     3.57414436    -0.16371968     1.92828206    -1.99218968
Ti      4.02163011     1.64106743     6.05985321     0.16371968    -1.92828206     1.99218968
Ti      5.44020769     1.64106878     1.24281593    -0.16230429    -1.92811623     1.99680816
Ti      0.86776438     2.38707009     8.39118169     0.16230429     1.92811623    -1.99680816
Ti      2.28633021     0.37300195     1.24285458    -0.16350114     1.92779124     1.99553238
Ti      4.02164180     3.65513686     8.39114310     0.16350114    -1.92779124    -1.99553238
Ti      0.86775263     0.37300050     6.05981456     0.16241279     1.92833914     1.99437281
Ti      5.44021938     3.65513832     3.57418296    -0.16241279    -1.92833914    -1.99437281
O       1.99651383     1.41837610     4.91615518     2.26046460    -1.48143934     2.33840685
O       4.31145823     2.60976257     4.71784238    -2.26046460     1.48143934    -2.33840685
O       1.15751390     1.41839236     0.09918741    -2.26028462    -1.48199907     2.33853901
O       5.15045821     2.60974635     9.53480985     2.26028462     1.48199907    -2.33853901
O       4.31144654     0.59569313     0.09915614    -2.26067543     1.48119843     2.33820322
O       1.99652553     3.43244553     9.53484112     2.26067543    -1.48119843    -2.33820322
O       5.15044647     0.59567692     4.91618640     2.26061964     1.48211888     2.33893958
O       1.15752549     3.43246180     4.71781112    -2.26061964    -1.48211888    -2.33893958
O       0.22919675     2.45014235     2.60238306     0.93631796    -0.02999064     1.85717998
O       6.07877531     1.57799632     7.03161445    -0.93631796     0.02999064    -1.85717998
O       3.38317833     1.57795887     2.21464632     0.93748112     0.03015648    -1.85810403
O       2.92479369     2.45017984     7.41935105    -0.93748112    -0.03015648     1.85810403
O       0.22918501     0.43607291     2.21461557     0.93660104    -0.03010917    -1.85744815
O       6.07878700     3.59206575     7.41938180    -0.93660104     0.03010917     1.85744815
O       2.92478199     0.43611041     7.03164515    -0.93737931    -0.03060719    -1.85748800
O       3.38319002     3.59202825     2.60235231     0.93737931     0.03060719     1.85748800
