# total energy = -4986.49537981 eV

CRYSTAL
PRIMVEC
        3.52309017     0.00000000     0.00000000
        0.00000000     3.31209223     0.00000000
        0.00000000    -0.00006523     4.71053111
PRIMCOORD
6 1
Ti      1.76154494     1.65601360     2.35526566     0.00000000     0.00000000     0.00000000
Ti      0.00000000     0.00000000     0.00000000     0.00000000     0.00000000     0.00000000
O       1.76154494     0.64546532     0.91801319    -0.00000000    -1.59507057    -1.25942630
O       1.76154494     2.66656188     3.79251818    -0.00000000     1.59507057     1.25942630
O       0.00000000     1.01052223     3.27327976    -0.00000000     1.59499087    -1.25910619
O       0.00000000     2.30150497     1.43725155    -0.00000000    -1.59499087     1.25910619
