# total energy = -4989.18342220 eV

CRYSTAL
PRIMVEC
        3.13295403     0.00000000     0.00000000
        0.00000000     4.01634763     0.00000000
        0.00000000    -0.00005898     4.50768540
PRIMCOORD
6 1
Ti      1.56647701     2.00814428     2.25384280     0.00000000     0.00000000     0.00000000
Ti      0.00000000     0.00000000     0.00000000     0.00000000     0.00000000     0.00000000
O       1.56647701     0.78271549     0.87848155     0.00000000    -0.06768869    -0.23823002
O       1.56647701     3.23357306     3.62920406     0.00000000     0.06768869     0.23823002
O       0.00000000     1.22540492     3.13232516    -0.00000000     0.06834817    -0.23918930
O       0.00000000     2.79088363     1.37536044    -0.00000000    -0.06834817     0.23918930
