# total energy = -4989.41359088 eV

CRYSTAL
PRIMVEC
        3.12998737     0.00000000     0.00000000
        0.00000000     4.90422096     0.00000000
        0.00000000    -0.00006364     4.90422096
PRIMCOORD
6 1
Ti      1.56499363     2.45207860     2.45211042     0.00000000     0.00000000     0.00000000
Ti      0.00000000     0.00000000     0.00000000     0.00000000     0.00000000     0.00000000
O       1.56499363     0.95574802     0.95576042    -0.00000000    -0.47913219    -0.47913219
O       1.56499363     3.94840919     3.94846043     0.00000000     0.47913219     0.47913219
O       0.00000000     1.49630478     3.40787184     0.00000000     0.47891776    -0.47891776
O       0.00000000     3.40785242     1.49634901     0.00000000    -0.47891776     0.47891776
