# total energy = -19932.90511605 eV

CRYSTAL
PRIMVEC
        7.06490206     0.00000000     0.00000000
        0.00002486     4.04879589     0.00000000
        0.00000000     0.00000000    10.68860632
PRIMCOORD
24 1
Ti      2.56070202     2.39931282     3.96539685     0.11413208     0.60124267     0.93749424
Ti      4.50422507     1.64948340     6.72320991    -0.11413208    -0.60124267    -0.93749424
Ti      6.09303197     1.64948483     1.37886385     0.11494352    -0.60114600    -0.93728135
Ti      0.97189511     2.39931150     9.30974302    -0.11494352     0.60114600     0.93728135
Ti      2.56068970     0.37491493     1.37890669     0.11413208     0.60124267    -0.93749424
Ti      4.50423739     3.67388140     9.30970018    -0.11413208    -0.60124267     0.93749424
Ti      0.97188280     0.37491333     6.72316707    -0.11494352     0.60114600    -0.93728135
Ti      6.09304429     3.67388294     3.96543969     0.11494352    -0.60114600     0.93728135
O       2.23609493     1.42564993     5.45431416     2.05324107     0.09636113     0.00247469
O       4.82883215     2.62314624     5.23429260    -2.05324107    -0.09636113    -0.00247469
O       1.29641503     1.42566624     0.11004518    -2.05283046     0.09626085     0.00178563
O       5.76851211     2.62312998    10.57856125     2.05283046    -0.09626085    -0.00178563
O       4.82881983     0.59874830     0.11001051    -2.05324107    -0.09636113     0.00247469
O       2.23610725     3.45004793    10.57859592     2.05324107     0.09636113    -0.00247469
O       5.76849979     0.59873198     5.45434884     2.05283046    -0.09626085     0.00178563
O       1.29642718     3.45006424     5.23425787    -2.05283046     0.09626085    -0.00178563
O       0.25669934     2.46270720     2.88725932    -0.92762531     0.40028312     0.92994110
O       6.80822774     1.58608902     7.80134744     0.92762531    -0.40028312    -0.92994110
O       3.78915909     1.58605116     2.45707801    -0.92657681    -0.40019878    -0.93039439
O       3.27576800     2.46274506     8.23152853     0.92657681     0.40019878     0.93039439
O       0.25668702     0.43830920     2.45704389    -0.92762531     0.40028312    -0.92994110
O       6.80824006     3.61048702     8.23156265     0.92762531    -0.40028312     0.92994110
O       3.27575568     0.43834706     7.80138150     0.92657681     0.40019878    -0.93039439
O       3.78917141     3.61044916     2.88722521    -0.92657681    -0.40019878     0.93039439
