# total energy = -4984.57199289 eV

CRYSTAL
PRIMVEC
        3.76488526     0.00000000     0.00000000
        0.00000000     2.84026469     0.00000000
        0.00000000    -0.00007509     4.97964383
PRIMCOORD
6 1
Ti      1.88244258     1.42009465     2.48982196     0.00000000     0.00000000     0.00000000
Ti      0.00000000     0.00000000     0.00000000     0.00000000     0.00000000     0.00000000
O       1.88244258     0.55351106     0.97045926     0.00000000    -2.17057726    -1.30922293
O       1.88244258     2.28667823     4.00918466     0.00000000     2.17057726     1.30922293
O       0.00000000     0.86655373     3.46028225    -0.00000000     2.17043199    -1.30912523
O       0.00000000     1.97363557     1.51936167    -0.00000000    -2.17043199     1.30912523
