# total energy = -19070.10606494 eV

CRYSTAL
PRIMVEC
        7.60600008     0.00000000     0.00000000
        0.00000000     7.60600008     0.00000000
       -1.89786986    -1.89786986     4.85670466
PRIMCOORD
22 1
Ti      3.95337999     6.66739702     1.20779098    -0.18395967    -1.55014875     0.35817306
Ti      3.92742099     2.58338798     1.02861701     0.70835178     2.85072454     1.63261563
Ti     -0.18381898     6.73372801     1.12854499    -0.60833146    -1.73419533     1.27972182
Ti      0.02623999     2.98564302     1.11326400    -0.67612633    -0.37041614     1.76036377
Ti      5.76907223     2.69158425     3.75130080     1.57690932     6.00719373    -3.12886376
Ti     -1.20963077    -0.49962080     4.04361683    -0.32849352     0.30329233    -6.80161245
Ti      1.79529325     2.83012921     3.72831281     1.95322923     1.39613190    -1.24603033
Ti      1.22188525    -0.81619479     3.72753979     5.21913207    -1.42064687    -0.20784831
O       3.56829199     4.72465202     0.57518900     0.41624941     0.06240301     3.92894791
O       4.05956200     0.86133303     0.64855398     0.04954312     0.55156791     1.60676627
O       0.46479199     4.69323900     0.90865502     0.94064204     0.23185137     0.14844758
O       7.33393000     0.89144199     0.42500701    -3.01233258    -2.79346400     4.96464109
O       4.99953024     4.18341721     4.41019479    -1.23185018     1.27732915    -1.18628018
O       5.31411622     1.10643121     3.95230984    -1.06501586    -3.58051779     0.47348219
O       2.15804124     4.85121424     4.24145779    -1.09383202    -1.26709359    -1.92408936
O       1.87017521     0.97760523     3.95919681     0.16302343    -1.20574061    -1.01505905
O       3.52772320     2.62046420     2.80863381    -0.60596116     0.68393272    -0.09929476
O       0.11429324     3.13359225     3.11210882    -0.92893889    -0.74908270    -0.10644808
O       5.72604202     6.49957899     2.18139700    -0.02215572     0.79949897    -0.94046515
O       5.81687302     2.95176901     1.56611103    -1.22357945    -0.48992003     0.14068850
O       2.27330599     6.63664103     2.13363902    -0.87820226     0.62929882    -0.55236752
O       1.81875898     2.20394599     0.41346698     0.83169870     0.36800162     0.91451062
