# total energy = -4988.47978434 eV

CRYSTAL
PRIMVEC
        3.44298594     0.00000000     0.00000000
        0.00000000     4.41379870     0.00000000
        0.00000000    -0.00006481     4.95375844
PRIMCOORD
6 1
Ti      1.72149297     2.20686689     2.47687933     0.00000000     0.00000000     0.00000000
Ti      0.00000000     0.00000000     0.00000000     0.00000000     0.00000000     0.00000000
O       1.72149297     0.86017171     0.96541462     0.00000000     0.14273459     0.08306286
O       1.72149297     3.55356206     3.98834404     0.00000000    -0.14273459    -0.08306286
O       0.00000000     1.34666895     3.44229484     0.00000000    -0.14269088     0.08311583
O       0.00000000     3.06706482     1.51146382     0.00000000     0.14269088    -0.08311583
