# total energy = -4986.56506847 eV

CRYSTAL
PRIMVEC
        3.83831403     0.00000000     0.00000000
        0.00000000     3.60843732     0.00000000
        0.00000000    -0.00007107     5.13199969
PRIMCOORD
6 1
Ti      1.91915685     1.80418324     2.56599995     0.00000000     0.00000000     0.00000000
Ti      0.00000000     0.00000000     0.00000000     0.00000000     0.00000000     0.00000000
O       1.91915685     0.70321748     1.00015121     0.00000000    -0.07617179     0.73592405
O       1.91915685     2.90514900     4.13184875     0.00000000     0.07617179    -0.73592405
O       0.00000000     1.10093738     3.56615216     0.00000000     0.07671429     0.73571296
O       0.00000000     2.50742910     1.56584775     0.00000000    -0.07671429    -0.73571296
