# total energy = -19069.61761153 eV

CRYSTAL
PRIMVEC
        5.17600016     0.00000000     0.00000000
        0.00000000     5.50899976     0.00000000
        0.00000000     0.00000000     9.26300011
PRIMCOORD
22 1
Ti      1.75597300     3.33307800     3.25537398     0.04819098     0.97076921     0.98821904
Ti      3.85004702     2.44063099     5.96473398    -0.36767123    -2.10669149     0.41033536
Ti      4.23877502     2.18897302     1.32563500     0.13940218     0.87313153    -1.36553988
Ti      1.11251299     3.04680998     8.30744898    -2.72049735     2.40007478    -1.42132872
Ti      1.67608300     0.56060498     1.33092698     0.08281758    -2.47117378    -1.95274715
Ti      3.18549501     5.13554001     7.81587998     0.16944347    -0.37491326     1.38750173
Ti      0.72160700     0.19083799     6.05138898     0.63136110     1.66345757    -0.39265722
Ti      4.34230199     5.09702098     3.36184502    -0.11861377    -0.03704858     1.25369171
O       3.38727898     3.33674202     4.48264202    -0.87783717     0.90618667    -0.70436246
O       0.88857301     2.06682701     0.50894998     0.10714871     1.16539716    -0.87472870
O       4.54340098     3.87564798     8.48156501     0.56747096    -0.54547054     0.37735092
O       3.19063100     0.49725701     0.28695599     2.64981564     2.65481618    -0.75423699
O       1.48193300     5.21378802     8.67379198    -1.82971005    -3.18383731    -1.97262332
O       4.26578999     0.77161700     4.81983598     0.81738022     0.62547276     0.01024174
O       0.84620200     4.79611402     4.42152998     0.68642643    -1.63162370     0.13548870
O       5.08907200     3.61327799     2.36474999     0.76933811    -1.59320858     0.18131118
O       0.40541301     1.99664800     6.74698099    -1.63621209     0.20287940    -0.17110981
O       2.58582400     1.81706000     2.29157700     0.19345604     2.07057391     1.97630617
O       2.64897199     3.02743199     7.27644299    -0.17885372     3.01327797     0.27775432
O       4.91018702     0.58617800     1.80740701     0.93350748    -1.31271166     2.79432712
O       2.61577400     0.96590099     6.48273099    -0.25954910    -3.06611468     0.35171573
O       2.55948399     4.77436802     2.52614402     0.19318505    -0.22324331    -0.53490896
