# total energy = -19960.37274418 eV

CRYSTAL
PRIMVEC
        5.93400000     0.00000000     0.00000000
        0.00000000     9.29699974     0.00000000
        0.00000000     0.00000000     4.64899994
PRIMCOORD
24 1
Ti      4.45619199     6.91540102     2.34348198    -0.51501761     1.53385695    -0.77043932
Ti      4.45009598     2.35591400     2.32150700    -0.04588547    -1.95126054     0.02176697
Ti      1.44865998     6.96840002     2.32910498     0.59960796     1.04920048    -0.81851099
Ti      1.51817699     2.42898602     2.34471100     0.30221169    -2.09663873    -0.08125383
Ti      2.98110898     4.70440999     4.55884698    -0.12402081    -1.10049093     0.70942470
Ti      2.94462999     9.20164999     0.00197399     0.86900054     2.19746484     0.43021437
Ti      5.91991002     4.66300801     4.62888899     0.13203031    -1.13029902     0.71094603
Ti      0.03031201     0.02058002     0.02653300    -0.46298360     1.82327946     0.24599861
O       4.42456502     5.63445700     0.73474700     0.04502749     0.37253087     1.03589528
O       4.33926700     0.89132499     0.88121400     1.69009986     0.85441595     0.77657989
O       1.50137503     5.61124400     0.88552299    -0.17344720    -0.26213589    -0.46406964
O       1.54835099     0.88247202     0.93855401    -1.09174789     0.21024561    -0.26923368
O       4.49253901     8.44953201     3.86212898     0.19709416    -2.13737659    -2.06662341
O       4.47446702     3.68330200     3.81879699    -0.16461546     0.39022984     0.11533536
O       1.53674201     8.35714899     3.81770403    -1.66289835    -1.65316261    -1.30286562
O       1.47176200     3.61869501     3.84312702     0.07686187     1.54191582     0.40535950
O       2.95012999     5.94052799     3.04698498    -0.07662507    -0.02271673     0.82548691
O       2.85743401     1.35423099     3.25748598     0.66639908     0.96767771    -0.74570864
O       5.85235102     5.96210201     3.20663400     0.78697692     0.72162742    -0.63079828
O       0.06030700     1.44208299     3.14663202    -0.36848833    -0.92761914     1.10308131
O       2.96770402     7.96003400     1.52688402    -0.29131021    -1.49902338     0.68973725
O       3.09602500     3.32030101     1.47653000    -1.09366799     0.36934965    -0.29578033
O       5.87951501     7.84258798     1.35243698     0.46671993    -0.72689613     1.51845938
O       5.90123001     3.21759501     1.49269398     0.23867765     1.47582533    -1.14300182
