# total energy = -19961.29773722 eV

CRYSTAL
PRIMVEC
        7.60600008     0.00000000     0.00000000
        0.00000000     7.60600008     0.00000000
       -1.89786986    -1.89786986     4.85670466
PRIMCOORD
24 1
Ti      3.77742797     6.63530602     1.27333599    -0.80694026    -0.22440674    -0.53163260
Ti      3.80555898     2.88345202     1.25586398    -0.57533468     0.30010004    -1.65647959
Ti     -0.01078500     6.59799601     1.20187102     0.65905909     0.71351045     0.22411646
Ti     -0.00204601     2.88751599     1.17187001     0.49621487    -0.42108566     0.03858430
Ti      5.74765621     2.80945721     3.57434583     0.30984273     0.81297952     0.39440480
Ti      5.75009720    -0.96827377     3.65927883     0.70296480    -0.89558910     0.12631963
Ti      1.90794222     2.84886520     3.57369383    -1.13196535     0.05634472     1.00694182
Ti      1.93325224    -0.98523078     3.68691379    -1.03727185     0.15281460    -0.14520413
O       3.59866798     4.76390899     0.78714798     0.94998132    -0.71559561     0.00670570
O       3.61094299     0.97328598     0.85612698     0.87616518     0.21521710    -0.07402492
O       0.03768398     4.80107300     0.65406901    -0.60108172    -1.68311366     1.13421790
O       0.05120600     0.97364502     0.78321397    -0.46364129     0.24876589    -0.07262598
O       5.91096423     4.67729521     4.11586582    -0.96445021     1.52871731    -0.59687282
O       5.80153122     0.91378322     3.96005879    -0.49937527     0.39118269     0.37855420
O       1.79776620     4.67666623     4.16413880     0.61447923     0.80461675    -0.38484338
O       1.75405520     0.91354721     4.00431182     0.95675104     0.75102723     0.35016227
O       3.77389524     2.96207622     3.10948579     0.47773403    -0.56846778     1.33876106
O       3.80234323    -1.15447875     3.27493782    -0.05314806     0.30434596     0.16772572
O      -0.07041476     2.89529722     3.17494084     1.49618950    -0.47100159    -0.29423047
O       0.05842921    -1.10045875     3.26380483    -1.38949126     0.15154910    -0.51105425
O       5.64900498     6.68051601     1.65611302     0.73796756     0.01458176    -0.11436245
O       5.76747099     2.98570102     1.61679599    -1.50803587    -0.21298512    -1.04690474
O       1.83263099     6.75428300     1.66763299     0.84344659    -0.40081482     0.46231332
O       1.84952799     3.10798399     1.66872098    -0.09006063    -0.85269254    -0.20057260
