# total energy = -19518.20416480 eV

CRYSTAL
PRIMVEC
        7.60600008     0.00000000     0.00000000
        0.00000000     7.60600008     0.00000000
       -1.89786986    -1.89786986     4.85670466
PRIMCOORD
23 1
Ti      3.81064898     6.73878001     1.22843699    -0.50471956     0.01675023    -0.05443490
Ti      3.80986802     2.96329100     1.20672601     0.41668187    -0.65102207     0.81676239
Ti     -0.04574901     6.48829502     1.33261802     1.00386472     1.03749168    -1.32585206
Ti      0.15333001     2.83913300     1.02661302    -1.84526471    -1.23156324    -0.72826216
Ti      5.60622624     2.88853122     3.62298881    -0.36436813    -1.83860658    -0.95770877
Ti      5.57608721    -1.11853878     3.59712083    -0.03260880     1.40423731     2.36631336
Ti      2.03046020     2.93106924     3.67152781    -0.50849266    -0.13958756     0.17565089
Ti      1.83960925    -0.88235380     3.65987882     0.53006834    -0.23976112     0.18529150
O       3.87646403     4.76066402     0.75236299    -0.11725572     1.03876771     1.27830900
O       4.03854800     1.02241701     0.78004701    -0.66882491    -0.00575542     0.01243694
O       0.30068301     4.72778698     0.60807901    -0.19554764     0.23541261     1.70878279
O      -0.24383599     1.01523899     0.74463902     0.99282980    -1.72183500     0.71134018
O       5.51530523     4.65013021     4.02529582     0.15169540     1.50234473     0.70463577
O       5.62122820     0.82555424     3.91342981     0.95985822     1.10975410     0.49544354
O       1.92389724     4.77269523     4.14831582    -0.35172550     0.49357897    -0.88403533
O       1.74594921     1.09338021     4.13030580    -0.46929849    -1.77171262    -1.09218060
O       3.80015624     2.70120623     3.41137982     0.14442637     0.22134712    -1.42660926
O       3.72382422    -0.98245778     3.19958780    -0.56121752     0.11844074     0.07949931
O      -0.01594977    -1.21680377     3.22151579     0.41916659     0.36083801     0.48535607
O       5.69414099     6.56125698     1.77063200    -0.20000927    -0.18494389    -2.38345182
O       5.84094201     3.01195398     1.80096799     0.93797812     0.23353930    -1.20562080
O       1.88397700     6.66241201     1.58442998    -0.18805930     0.61105426     0.36765323
O       1.90860899     2.95376401     1.60538698     0.45082357    -0.59876927     0.67068151
