# total energy = -4988.48995759 eV

CRYSTAL
PRIMVEC
        3.33321395     0.00000000     0.00000000
        0.00000000     4.72525196     0.00000000
        0.00000000    -0.00006463     4.98641511
PRIMCOORD
6 1
Ti      1.66660698     2.36259349     2.49320756     0.00000000     0.00000000     0.00000000
Ti      0.00000000     0.00000000     0.00000000     0.00000000     0.00000000     0.00000000
O       1.66660698     0.92086935     0.97177885     0.00000000    -0.16036851    -0.23422296
O       1.66660698     3.80431758     4.01463620     0.00000000     0.16036851     0.23422296
O       0.00000000     1.44169796     3.46498742     0.00000000     0.16030269    -0.23419982
O       0.00000000     3.28348902     1.52142764     0.00000000    -0.16030269     0.23419982
