# total energy = -19942.66578070 eV

CRYSTAL
PRIMVEC
        5.86502878     0.00000000     0.00000000
        0.93111897     6.17232783     0.00000000
        0.00000000     0.00000000    10.52692257
PRIMCOORD
24 1
Ti      2.67757106     3.65771569     3.90541323     0.05877081    -1.52946191     0.79109274
Ti      4.11857662     2.51461196     6.62150958    -0.05877081     1.52946191    -0.79109274
Ti      5.43754750     2.51461404     1.35800608    -0.15009849    -0.06243309    -0.24050262
Ti      1.35860020     3.65771385     9.16891685     0.15009849     0.06243309     0.24050262
Ti      2.21201170     0.57155189     1.35804830     0.05877081    -1.52946191    -0.79109274
Ti      4.58413599     5.60077594     9.16887463    -0.05877081     1.52946191     0.79109274
Ti      0.89304081     0.57154963     6.62146737     0.15009849     0.06243309    -0.24050262
Ti      5.90310688     5.60077821     3.90545544    -0.15009849    -0.06243309     0.24050262
O       2.18418143     2.17338148     5.37180806     1.51621378     1.65063881    -0.41227552
O       4.61196624     3.99894617     5.15511469    -1.51621378    -1.65063881     0.41227552
O       1.40409661     2.17340643     0.10838056    -0.85811937     0.46662300     0.57205601
O       5.39205113     3.99892128    10.41854195     0.85811937    -0.46662300    -0.57205601
O       4.14640687     0.91278219     0.10834642    -1.51621378    -1.65063881    -0.41227552
O       2.64974080     5.25954546    10.41857609     1.51621378     1.65063881     0.41227552
O       4.92649176     0.91275729     5.37184226     0.85811937    -0.46662300     0.57205601
O       1.86965586     5.25957042     5.15508054    -0.85811937     0.46662300    -0.57205601
O       0.77944939     3.75435967     2.84358446     0.35270535     0.72070131     0.95385006
O       6.01669829     2.41796793     7.68333835    -0.35270535    -0.72070131    -0.95385006
O       3.51036698     2.41791052     2.41991043     0.64984734     1.00747198     0.23846759
O       3.28578069     3.75441707     8.10701220    -0.64984734    -1.00747198    -0.23846759
O       0.31389002     0.66819568     2.41987676     0.35270535     0.72070131    -0.95385006
O       6.48225765     5.50413191     8.10704580    -0.35270535    -0.72070131     0.95385006
O       2.82022132     0.66825309     7.68337189    -0.64984734    -1.00747198     0.23846759
O       3.97592635     5.50407450     2.84355085     0.64984734     1.00747198    -0.23846759
