# total energy = -4987.24975917 eV

CRYSTAL
PRIMVEC
        3.01873175     0.00000000     0.00000000
        0.00000000     3.86991829     0.00000000
        0.00000000    -0.00005683     4.34334271
PRIMCOORD
6 1
Ti      1.50936587     1.93493068     2.17167145     0.00000000     0.00000000     0.00000000
Ti      0.00000000     0.00000000     0.00000000     0.00000000     0.00000000     0.00000000
O       1.50936587     0.75417899     0.84645358    -0.00000000    -0.19591968    -0.42637571
O       1.50936587     3.11568237     3.49688933    -0.00000000     0.19591968     0.42637571
O       0.00000000     1.18072870     3.01812581     0.00000000     0.19534221    -0.42518632
O       0.00000000     2.68913266     1.32521710     0.00000000    -0.19534221     0.42518632
