# total energy = -19961.43632527 eV

CRYSTAL
PRIMVEC
        7.60600008     0.00000000     0.00000000
        0.00000000     7.60600008     0.00000000
       -1.89786986    -1.89786986     4.85670466
PRIMCOORD
24 1
Ti      3.82672099     6.64292802     1.17556297    -0.01076547    -0.40007100    -0.27402236
Ti      3.77342501     2.80787503     1.20436599     1.26311583     0.56120415    -0.50123520
Ti     -0.00325402     6.71489200     1.23668702     0.12540072    -1.00451598    -0.26967694
Ti     -0.05054399     2.80007199     1.20104699    -0.77980816     0.87388049     1.90642459
Ti      5.65963721     2.84201024     3.70358081     1.84248046     1.03558237     0.37003896
Ti      5.68282221    -0.87634277     3.62265882     1.03958404    -1.54537910     0.03423914
Ti      1.94186021     2.81258322     3.59399482    -0.99176690     0.04654521     1.07090317
Ti      1.97016723    -0.97172977     3.57429381    -1.06597051    -0.01197440     0.45643114
O       3.81698598     4.75235101     0.78594897    -0.23474001    -1.14638462     0.30016072
O       3.85614399     0.88198703     0.69229799    -0.15884127     1.40419951     0.74420326
O      -0.13060603     4.75109199     0.80878303     0.52525189    -0.10278451     0.25287195
O      -0.11924898     0.91926698     0.82427898     0.22846625     0.76015027    -0.35750894
O       5.80522821     4.75693522     4.14120982    -0.20224922     0.26622883    -0.58255691
O       5.64644720     0.91253225     4.18662481     0.02527344     0.19764566    -1.75448880
O       1.82576920     4.66012023     4.08601483     0.26402462     0.91997988    -0.92196631
O       2.03993623     0.92633721     3.99822581    -0.31937510     0.11213356     0.81718122
O       3.90868124     2.85600222     3.19822580    -2.52335331    -0.09458835    -0.15605548
O       3.79860025    -0.98951277     3.14872979     0.72067174    -0.32667935     0.62049201
O      -0.06441775     2.74580523     3.14687179     0.76475512    -0.20228984     1.28497613
O      -0.03592579    -0.86195280     3.26813779     0.28019738    -0.18816137    -0.04954235
O       5.73891701     6.68020798     1.59704699    -1.10003918     0.03691977     0.59863428
O       5.68721401     2.84536300     1.69556302    -0.75730586    -0.13746691    -1.10037317
O       1.91411301     6.86239698     1.68815401    -0.15609919    -0.69984888    -0.74277167
O       1.86179299     2.93610801     1.74550899     1.22109319    -0.35432463    -1.74635845
