# total energy = -19961.86728671 eV

CRYSTAL
PRIMVEC
        7.60600008     0.00000000     0.00000000
        0.00000000     7.60600008     0.00000000
       -1.89786986    -1.89786986     4.85670466
PRIMCOORD
24 1
Ti      3.76528002     6.61637200     1.24647802     0.17664899    -1.21248205    -0.17823408
Ti      3.74506000     2.77153298     1.22376599     0.23297777     1.19603161     0.08119521
Ti      0.04184199     6.70919599     1.23145002    -0.09578160    -0.03259774    -0.29970589
Ti     -0.00076699     2.91989698     1.14259200    -0.18110240    -0.08731264     0.49341982
Ti      5.71637623     2.97556622     3.61791982     0.34338767    -0.17791269    -0.39910324
Ti      5.71750925    -0.88704077     3.60898779     0.02414318    -0.14941817     0.09769707
Ti      1.84405524     2.76485323     3.63848381    -0.05664605     0.29969972     0.34490950
Ti      1.88377121    -1.04930779     3.69728583     0.02714469    -0.18935668    -0.50613007
O       3.68018398     4.73598002     0.74761199     0.33731369    -0.79506613     0.28876662
O       3.73095700     0.88816702     0.87845302     0.31358600     0.35262333    -0.45424571
O       0.10665298     4.76198701     0.80835302    -0.29644085     0.97561446    -0.71988755
O       0.11090698     1.01748101     0.77821299    -0.57596795    -0.84180160    -0.26810959
O       5.97730522     4.81171523     4.02937879    -1.06590315    -0.31969674     0.75215157
O       5.73203924     1.00009124     3.97277280    -0.39273950    -0.14706407     0.30058778
O       1.70648122     4.68049721     4.11785881     0.62745251     1.18191239    -0.24577673
O       1.96902023     0.89448921     4.03501781    -0.09455647    -0.46019858     0.36974174
O       3.76506422     2.86010323     3.14994383     0.88454081     0.23674007     0.68878439
O       3.80307921    -1.18502477     3.22086882     0.10516047     0.46291418     0.44752844
O      -0.01336278     2.89695524     3.21291481     0.15446962    -0.64307376    -0.37006596
O      -0.00984577    -0.89712679     3.23528583     0.39679001     0.22744527    -0.40650493
O       5.71758402     6.59687801     1.57469100     0.07195466     0.36927586     0.25030444
O       5.75159599     3.02399202     1.60916198    -0.77202132    -0.55486329     0.06737758
O       1.88763499     6.57321601     1.70770002    -0.04811487     0.31184228     0.15615421
O       1.89674901     2.82968602     1.64985301    -0.11629592    -0.00325450    -0.49085411
