# total energy = -19520.00824825 eV

CRYSTAL
PRIMVEC
        5.17575250     0.00001323     0.00000000
        0.00001429     5.50856584     0.00000000
        0.00000000     0.00000000     9.26345890
PRIMCOORD
23 1
Ti      1.84313026     3.37575250     3.40607979     0.01424340    -0.00411480     0.01046079
Ti      3.37669627     2.17164908     5.76831600    -0.01262489    -0.01111771     0.01126169
Ti      4.57041120     1.94528852     1.42587092     0.02422314     0.00372862     0.01345922
Ti      0.85104916     3.30695640     7.94536186    -0.00892507     0.01588351    -0.02281469
Ti      2.02203248     0.49420543     1.24791745     0.01204922    -0.01195435     0.02835465
Ti      3.16095318     5.16296495     7.91336589     0.00199029     0.01997954    -0.00360623
Ti      0.62265410     0.71064354     5.65801627    -0.00498254    -0.01227239    -0.01780490
Ti      4.57008525     4.83520232     3.57153668     0.01553667     0.00170001    -0.00932642
O       1.53706010     1.94882336     4.65585913    -0.01081792     0.01708756     0.03592578
O       3.57612851     3.52524743     4.50692251    -0.01809492    -0.02642555     0.00150975
O       0.73490537     2.11109137     0.10011981     0.00852012     0.01971060    -0.02420849
O       3.53169676     0.86482538     0.08257452     0.01829881     0.01474991     0.01866956
O       1.69817302     4.70078149     9.14771393     0.00450586     0.00488381    -0.03700564
O       4.06264898     0.77220947     4.69722966     0.02138876     0.00512370     0.02950779
O       1.03479767     4.63745203     4.62204398    -0.01533818    -0.02105066    -0.01616916
O       0.17965711     3.36512445     2.39549050    -0.03543110    -0.00378801    -0.01454911
O       4.94530103     2.14659689     6.83593889    -0.00936499    -0.00734436    -0.01030601
O       2.78291996     2.12611440     2.10311624     0.00103281     0.03657550    -0.02178548
O       2.48821201     3.41294932     7.13715538    -0.01485995    -0.02069173     0.02350940
O       0.26634549     0.55015063     2.19792830     0.00136191    -0.00766600     0.02039374
O       4.89811929     4.76970670     7.36010088     0.01685025     0.02202948    -0.02581003
O       2.32576834     0.73442495     6.75354589    -0.02686830    -0.00392608     0.03666960
O       2.80444238     4.86589459     2.46121853     0.01730610    -0.03110033    -0.02633633
