# total energy = -39036.37445074 eV

CRYSTAL
PRIMVEC
        5.93200024     0.00000000     0.00000000
        0.00000000     9.29399984     0.00000000
        0.00000000     0.00000000     9.29399984
PRIMCOORD
46 1
Ti      4.43671398     6.91830101     6.95612301     1.44287638     0.80548424    -0.90663687
Ti      4.45813598     6.95860400     2.27714999    -0.17555370    -0.48749420     0.61416350
Ti      4.49094401     2.36371100     7.03129798    -0.00467504    -0.24301253    -1.69118127
Ti      4.39399498     2.47148298     2.22671601    -0.07566194    -0.59753617     0.91917075
Ti      1.48550500     7.01683303     7.04898298    -0.86735040    -0.20926319    -0.99820546
Ti      1.50665299     7.01153702     2.24239299     0.15259117    -0.79012343     0.47220333
Ti      1.49918402     2.26088202     6.99666502    -0.14414844     0.94953266    -0.35285550
Ti      1.40768298     2.20727901     2.51477798     0.71337469    -0.04649173    -0.40141209
Ti      2.97498502     4.76503899     4.68363999    -0.32764891    -0.30108246     1.06516421
Ti      2.99376102     4.79162798     9.06799998    -0.96892444     0.28654673     0.55939512
Ti      2.93398802     9.25916098     4.74211000     0.58032108     0.63426259    -0.65770155
Ti      2.95340501     9.27711300     0.01918299    -0.50498799     0.53937728    -0.21774064
Ti      0.02415202     4.63636298     4.52911299     0.30072482     0.22319652     1.13535201
Ti      0.01246101     4.64057899     9.16842798     0.81950781     0.12584038     0.97404351
Ti      5.89403701     9.11858700     4.74923501    -0.53564943    -0.46441237     0.58647348
Ti      5.85232202     9.26180702     0.05914900     0.45817538     0.45715594    -0.64824785
O       4.55169700     5.63774800     5.46927702    -0.61893032     0.05006788     0.24921506
O       4.46494898     5.53583302     0.83049602    -0.80899045    -0.37311991     0.35817820
O       4.45936801     0.75545799     5.78817500    -0.06131183     0.11779873    -1.56082603
O       4.41689201     0.94831299     0.93125898     0.34442151     0.08801866     0.35530473
O       1.41065198     5.68316300     5.56029598     0.60162088    -0.97029561    -0.59682808
O       1.54109200     5.69274698     0.73069498     0.52887355    -1.11768236     0.20218289
O       1.40273300     0.92696699     5.54596300     0.21562025    -0.04649893    -0.33112427
O       1.59362401     0.96540198     0.95571401    -0.95890382    -0.25177408     0.74635167
O       4.42622299     8.27977999     8.36562101     0.33788602     1.02311380     0.72128701
O       4.43023802     8.35482098     3.68814402     0.44349361     0.49679928     0.59862323
O       4.47751201     3.66286602     8.40241301    -0.55823581     0.58279346     1.05265656
O       4.42964698     3.68133500     3.86413002     0.15819309    -0.13212930    -1.63226210
O       1.41214701     8.37174301     8.44032702     0.46669139    -0.01494223    -0.16814892
O       1.46212500     8.37981402     3.68578400    -0.27447488     0.81706141     0.26609128
O       1.45672898     3.86517599     8.20786703     0.79801647    -0.65533176     1.18979823
O       1.55087998     3.61987698     3.91789898    -0.31289180    -0.05546232    -1.27260012
O       3.01423002     6.05342499     7.70032900    -0.51030555    -1.36804310     1.44943115
O       2.93037803     6.06253599     3.21574802     0.34625470     0.00895901    -0.50062482
O       2.98577902     1.38564999     7.98032298    -0.46623605     0.79574541    -1.09467329
O       3.07667500     1.46019202     3.30034198    -0.09043859     0.23061518    -0.63956472
O       5.92721701     6.05768502     7.91461499    -0.46332967     0.12653689    -0.43845296
O       0.08879499     6.00184502     3.16753098    -0.49660130     0.06988981    -0.46830399
O       5.89814099     1.39921598     7.97622101     0.78345605     0.34927575    -0.34138375
O       2.90849797     7.82922901     6.04190602     0.29702552     0.69421354    -0.18196424
O       3.01109401     7.87414399     1.37039900     0.08611193    -0.24219184     0.35786684
O       3.00280302     3.44943000     6.13343400     0.11002037    -1.82676896     0.78360106
O       0.02571399     7.80609100     6.08486701    -0.02027933     0.97741654    -0.56777641
O       5.91449998     7.78345899     1.36472299    -0.11306379     1.00390740    -0.10221219
O       0.04819699     3.30617399     6.10153202    -0.55826949    -1.26911859     0.53880855
O       0.10091098     3.18870199     1.45615201    -0.06839343     0.00916650     0.57536399
