# total energy = -19917.70852985 eV

CRYSTAL
PRIMVEC
        7.69893217     0.00000000     0.00000000
        0.00002905     4.91639501     0.00000000
        0.00000000     0.00000000    11.75841742
PRIMCOORD
24 1
Ti      2.79050961     2.91345111     4.36228902     0.53064992    -0.37221154     1.93285657
Ti      4.90845111     2.00294384     7.39612853    -0.53064992     0.37221154    -1.93285657
Ti      6.63984323     2.00294549     1.51687278     0.53039667     0.37224317    -1.93364590
Ti      1.05911755     2.91344964    10.24154483    -0.53039667    -0.37224317     1.93364590
Ti      2.79049533     0.45525367     1.51691994     0.53031131    -0.36923292    -1.93317359
Ti      4.90846538     4.46114140    10.24149773    -0.53031131     0.36923292     1.93317359
Ti      1.05910321     0.45525189     7.39608136    -0.52977266    -0.36939490    -1.93357082
Ti      6.63985750     4.46114318     4.36233612     0.52977266     0.36939490     1.93357082
O       2.43677073     1.73114621     6.00023043     0.87471302     1.31408231    -1.69170809
O       5.26219005     3.18524867     5.75818712    -0.87471302    -1.31408231     1.69170809
O       1.41276056     1.73116606     0.12105950    -0.87465311     1.31441244    -1.69276867
O       6.28620028     3.18522888    11.63735766     0.87465311    -1.31441244     1.69276867
O       5.26217577     0.72705111     0.12102134    -0.87479581    -1.31408951    -1.69203539
O       2.43678500     4.18934378    11.63739583     0.87479581     1.31408951     1.69203539
O       6.28618594     0.72703132     6.00026853     0.87470042    -1.31427309    -1.69294710
O       1.41277471     4.18936363     5.75814895    -0.87470042     1.31427309     1.69294710
O       0.27973758     2.99043014     3.17624189    -2.12418683     0.71509759     0.39614595
O       7.41922320     1.92596474     8.58217559     2.12418683    -0.71509759    -0.39614595
O       4.12921252     1.92591903     2.70300422    -2.12352554    -0.71476926    -0.39571041
O       3.56974819     2.99047591     9.05541307     2.12352554     0.71476926     0.39571041
O       0.27972324     0.53223258     2.70296669    -2.12360216     0.71479523    -0.39531728
O       7.41923747     4.38416231     9.05545060     2.12360216    -0.71479523     0.39531728
O       3.56973392     0.53227835     8.58221306     2.12380708     0.71492969    -0.39637581
O       4.12922680     4.38411654     3.17620436    -2.12380708    -0.71492969     0.39637581
