# total energy = -4990.23777128 eV

CRYSTAL
PRIMVEC
        3.87103615     0.00000000     0.00000000
        0.57739900     3.82773187     0.00000000
       -2.22425246    -1.91389595     4.95433610
PRIMCOORD
6 1
Ti      0.43290849     2.87094521     1.23858376    -0.00014758     0.00014758    -0.00000000
Ti      1.79127461    -0.95710894     3.71575181     0.00014758    -0.00014758     0.00000000
O       0.14439047     0.95692724     0.80702074    -0.00034221    -0.00041498    -0.43733247
O       2.07979246     0.95690888     4.14731483     0.00034221     0.00041498     0.43733247
O      -0.14436678    -0.95690686     3.28418879    -0.00041498    -0.00034221    -0.43733247
O       2.36854965     2.87074298     1.67014678     0.00041498     0.00034221     0.43733247
