# total energy = -4986.48723544 eV

CRYSTAL
PRIMVEC
        2.82545651     0.00000000     0.00000000
        1.08973966     4.29084927     0.00000000
       -0.00000701    -0.00005802     4.46260850
PRIMCOORD
6 1
Ti      1.95759447     2.14539554     2.23130430     0.00000000     0.00000000     0.00000000
Ti      0.00000000     0.00000000     0.00000000     0.00000000     0.00000000     0.00000000
O       1.62510101     0.83621197     0.86969669    -3.75221869     1.74592573     1.95784385
O       2.29008787     3.45457912     3.59291190     3.75221869    -1.74592573    -1.95784385
O       0.33249048     1.30916009     3.10100189     3.75195207    -1.74655154     1.95845371
O       0.75724206     2.98163107     1.36160671    -3.75195207     1.74655154    -1.95845371
