# total energy = -19518.52481274 eV

CRYSTAL
PRIMVEC
        7.60600008     0.00000000     0.00000000
        0.00000000     7.60600008     0.00000000
       -1.89786986    -1.89786986     4.85670466
PRIMCOORD
23 1
Ti      3.72445701     6.64310800     1.31955501     1.56859385    -0.74428708    -1.14599998
Ti      3.78192900     2.84849203     1.13203502     0.15676433     1.02101218     0.45242099
Ti     -0.00623699     6.55890499     1.24240298    -1.24249146    -0.07110748    -0.29528231
Ti     -0.02865902     2.82511001     1.11495800    -0.10542093     0.42154203     0.72072779
Ti      5.57679721     2.96730423     3.58247579     0.33231778    -1.24524512     1.85713447
Ti      5.76538524    -0.97863977     3.71564579    -0.64022035     1.00455455    -1.09664481
Ti      2.05570624     2.91965922     3.59988684    -0.91821996     0.60643013     1.45698094
Ti      1.86178125    -0.92219576     3.61156181     0.58739110    -0.58836658     1.14262387
O       4.02685303     4.70261798     0.84560598    -0.94560324     0.22520070    -0.38447751
O       3.67553198     0.96190702     0.76557602    -0.11947175    -0.00200855     0.28376968
O      -0.27670398     4.67310302     0.72062702     0.68426182     1.89109053     0.81869354
O       0.14902801     0.94420202     0.81826900    -0.18594996    -1.17736308    -0.02176542
O       5.86738521     4.75390923     3.99098280     0.33417489    -0.27594581     0.64380781
O       5.71610222     0.98504424     4.13986380     0.28480917    -0.74469588    -1.92192629
O       1.88600624     4.76091622     4.08486281    -0.67219589    -0.02094447     0.42580235
O       2.02380421     1.05293620     3.88208384    -0.80246345    -1.51511720     1.14362968
O       3.79493120     2.94470523     3.24370684     0.56229944     0.11931543    -1.08129866
O       3.79589721    -1.05644179     3.23244383     0.39752895     0.56932961     0.47468110
O       0.00068322    -0.81615780     3.18287680    -0.10836895    -0.05532219     0.44033269
O       5.71802398     6.56622098     1.65419300    -0.04731757     0.83110066     0.04977092
O       5.67736200     2.68481798     1.76182998     1.14986872    -0.28384861    -1.71653287
O       1.86435300     6.31261701     1.73890502     0.16856210     0.39135650    -1.26567588
O       1.84223900     3.04830697     1.71649500    -0.43884813    -0.35668002    -0.98077209
