# total energy = -19518.71923803 eV

CRYSTAL
PRIMVEC
        7.60600008     0.00000000     0.00000000
        0.00000000     7.60600008     0.00000000
       -1.89786986    -1.89786986     4.85670466
PRIMCOORD
23 1
Ti      3.77695500     6.68047500     1.25211402     1.35013254    -0.49487326    -1.45280289
Ti      3.77152802     2.80843098     1.06917501    -0.83214479     0.72654106     0.89728705
Ti      0.08293202     6.61640402     1.24053298    -1.79834746     0.31519397     0.62344184
Ti      0.05335303     2.84887198     1.11401500     0.28501923    -0.91441446    -0.76789598
Ti      5.54140520     2.91284723     3.61718284    -0.11882743    -1.14093645     0.73457242
Ti      5.65264625    -1.03451977     3.62413480     1.84178395     1.23729089    -0.36947023
Ti      1.98706121     2.90330421     3.72118183    -1.54929258    -0.02135019    -0.01770025
Ti      1.98385625    -0.94252575     3.60374084    -2.14752500    -0.28813335     0.62065991
O       3.73830998     4.74121400     0.91934800    -0.15474859    -0.09727335    -0.55139822
O       4.02400102     0.93313301     0.79388102    -0.05239936     0.65136120    -0.34920633
O       0.12787701     4.63985301     0.76173599     0.43985446     2.90581945     0.00558701
O      -0.16849199     0.99402999     0.85126199     0.30005376    -1.28252921    -0.77374679
O       5.55748520     4.77136224     4.09570883     0.57003615    -0.67456799     0.05504091
O       5.83817024     0.96783222     4.00245383    -0.34953106    -0.34848282    -0.31146175
O       1.75101524     4.74572122     4.05302783     0.15460769     0.28072960    -0.04750886
O       1.63696225     1.00454125     4.00763082     0.41999757    -0.69702710     0.88435517
O       3.71084721     2.82123723     3.46114381     2.09341508    -0.14064197    -0.83825630
O       3.80518925    -0.96530778     3.16226582    -0.37444840     0.29609606     0.76931009
O       0.03125622    -1.05734076     3.18581479    -0.13921912     0.04460120     0.10546541
O       5.72884100     6.46898598     1.62273098    -0.29295315     0.35228523     0.31076293
O       5.85032200     2.98953898     1.79505501    -0.51901259    -0.18671101    -0.17138723
O       1.90197400     6.92243500     1.59164198     0.47396067    -0.50308254     0.29512239
O       1.87296901     2.74627800     1.70333103     0.39958789    -0.01989443     0.34923024
