# total energy = -39036.33245199 eV

CRYSTAL
PRIMVEC
        7.60600008     0.00000000     0.00000000
        0.00000000     7.60600008     0.00000000
       -3.79573973    -3.79573973     9.71340985
PRIMCOORD
46 1
Ti      1.99178845     5.00806645     5.88870963    -0.40531168     1.53838518     1.54974689
Ti      3.91956901     6.50983000     1.25898899     0.93374300     0.67957110    -0.94739325
Ti      1.73983642     1.07238844     6.22881063     1.00925941    -1.14767197    -0.08853623
Ti      3.69696700     2.46772201     1.26731400     2.01476706     1.31898747    -0.18974234
Ti     -1.85607957     4.69395144     6.06075161    -0.05138737     0.66334332    -2.18059145
Ti      0.11967698     6.51058799     1.30034202    -0.80699245     1.33623752     0.04286416
Ti     -2.04472454     0.93937947     6.15329762    -0.93703555     0.05360752    -1.46264354
Ti     -0.00566802     2.71364502     1.15113102    -1.40305460    -0.84371964     1.05774221
Ti      3.72578842     0.90978746     8.61635561    -1.17209669     0.15801029    -2.17948999
Ti      5.70938400     2.86848799     3.61202198     1.06610344     1.58071790    -0.61994822
Ti      3.75096842    -2.89525553     8.42911762     0.25172498    -0.74646146    -0.17550022
Ti      5.74412300    -0.76074998     3.69707902     1.36153024    -1.35570335     0.48025217
Ti     -0.21158755     0.85661546     8.49282061     1.24565752    -0.29024089     0.07872232
Ti      1.93641000     2.95578700     3.47016999    -1.08102870     1.23734231     2.08839243
Ti     -0.00947053    -2.93727654     8.41429261     0.28319863    -0.06012501     0.46375288
Ti      2.03463700    -0.61216500     3.55185601    -1.07586875    -0.29110169     2.20499971
O       1.90511843    -0.68247953     5.69320462     0.28815778    -1.90129987    -1.14959181
O       3.61938501     0.77290100     0.76475701     0.58707434    -0.98827766    -0.78466035
O      -1.94580454     2.85024847     5.53299864     0.27582625     0.47298134     1.61895458
O       0.08730102     4.67776898     0.72023400     0.06937456    -0.52301991     1.94706269
O      -2.14369857    -0.85835857     5.62132562     0.00248369    -0.12983176     0.45389295
O       0.06109902     0.84427002     0.94682002     0.09567490     0.04715328    -1.24346437
O       3.81026247     2.73415847     8.96471363    -0.09794081     2.01348665     0.21036542
O       5.84068600     4.87971800     4.08459002    -0.54752973    -0.69980286     0.04125928
O       3.88619046    -1.04207156     8.84893865    -0.31683536    -0.84614651     0.60008953
O       5.84641402     1.07271198     4.04053501    -0.00670878    -0.73932022     0.07590208
O       0.06563047     2.67741542     8.94568765    -0.10394280     0.37430776    -0.33388050
O       2.04506602     4.85310800     4.10778899     0.20667769    -0.61937101    -1.45057169
O      -0.14284754    -0.95614958     9.13910664     0.26652785     0.01399041    -0.91952171
O       1.84859002     1.25008500     4.12972498     0.29249935    -0.57152148    -0.05661571
O       1.87367043     0.78047442     8.14828860    -0.72199200     0.45065722    -0.00410502
O       3.83566001     2.94428602     3.16145401    -0.39294416     0.13653411     0.35826073
O       1.94145544    -2.93070056     7.85294562    -0.76648393    -0.17547888     1.64602008
O       3.97059497    -0.67023998     3.13496901    -1.95421910    -0.05279711     1.20671712
O      -2.03436553     0.93326943     8.05084961     0.02518525     0.05409809     0.80489674
O       0.03127998     3.05006300     3.16776398    -0.65609049     0.04557796    -0.24640305
O      -1.83301856    -2.90185754     8.03208360    -0.45124137    -0.36542254     0.22846677
O       0.14147300    -0.81648298     3.37693499     0.55669778    -0.12262547    -1.19770411
O       3.81882847     4.65177045     6.39603265    -0.11254777     0.13257873     0.53108444
O       5.82404501     6.65203998     1.74763798     0.33194394    -0.92644080    -1.39004173
O       3.65194047     1.07382944     6.37334063     0.25461387     0.79702993     0.64970927
O       5.68001699     2.64739700     1.62273998     0.18914225     0.25997719    -0.77964027
O       0.00352644     4.93547645     6.31586261     0.48628449    -0.65938562     1.09863562
O       2.06664301     6.57486498     1.65991500    -1.22182621    -0.75005663     0.12976311
O      -0.18558754     0.66561047     6.56690462     1.38155991     1.30297206    -0.05297554
O       1.84842502     2.67629198     1.68903297     0.80736989     0.13827501    -2.11453207
