# total energy = -19960.99436879 eV

CRYSTAL
PRIMVEC
        5.93400000     0.00000000     0.00000000
        0.00000000     9.29699974     0.00000000
        0.00000000     0.00000000     4.64899994
PRIMCOORD
24 1
Ti      4.49594500     6.94750303     2.22869899    -1.38789383     0.61576067     0.52183926
Ti      4.40985199     2.29582798     2.29556599     0.62822795     0.38975933     0.52483820
Ti      1.47283200     6.96574599     2.40073399     1.35102831     0.23111552    -0.13729053
Ti      1.46261798     2.29026803     2.33241599    -0.47246506     0.16987311     0.63241268
Ti      2.98294501     4.67242599     4.64872102    -0.73786214    -0.55930076    -0.39051960
Ti      2.95561602     0.07547502     0.03311702    -0.16427067    -1.14068088    -0.66746146
Ti      0.01019301     4.62338501     4.61283301     0.54877955    -0.71314766    -0.10206486
Ti      5.93337198     9.27234501     0.06714598    -0.21406113     0.00588989    -1.45535446
O       4.43502802     5.47767802     0.86309799     0.70494224     1.23159230     1.01966595
O       4.39872498     0.84826002     0.85478102     0.73426311     1.02719183     1.61779964
O       1.48982801     5.57099600     0.88391498    -0.37416944    -0.39812467    -0.12942218
O       1.47047700     0.93819999     0.97433100     0.15417677    -0.67278827    -0.58124642
O       4.45886301     8.44231599     3.74107397     0.04071498    -0.53802076    -0.27961040
O       4.42928698     3.81797502     3.70107500     0.34796115    -0.59005837    -0.15890298
O       1.46909998     8.46107998     3.71584000    -0.16551586    -0.31855903     0.14018585
O       1.53027303     3.74887399     3.67986700    -0.38781660     0.68273947     0.77116977
O       3.00803902     6.13119002     3.18176098     0.07473094    -0.51438923     0.58053243
O       2.99088600     1.49892398     3.26906401     0.13071596    -0.69904978     0.34371163
O       5.84862202     6.02590798     3.22049702     0.40954166     0.41864491    -0.23027503
O       5.90024199     1.46982400     3.32387100     0.30869062    -0.19661799    -0.29287807
O       2.87081002     7.83417301     1.37719999     0.87921836     0.31207959     0.00878958
O       3.02382200     3.15123301     1.36559201    -0.29066435     0.65387189    -0.23660406
O       0.10114800     7.90500899     1.44917000    -1.19057187    -0.23775514    -0.17461962
O       0.07154101     3.19118499     1.49490599    -0.92770064     0.83997380    -1.32469557
