# total energy = -19072.71139148 eV

CRYSTAL
PRIMVEC
        5.17600016     0.00000000     0.00000000
        0.00000000     5.50899976     0.00000000
        0.00000000     0.00000000     9.26300011
PRIMCOORD
22 1
Ti      1.64100702     3.39852600     3.26424701     2.07646893    -0.73113125     0.45192117
Ti      3.82313301     2.19759501     6.02510199    -1.43672655     0.37677885    -2.37058011
Ti      4.45250998     2.21573500     1.28347597    -1.16568744    -1.57181262     0.67071262
Ti      0.96755901     3.11948698     8.00948398    -1.15682279     1.48967690     0.89517875
Ti      1.83991998     0.57609500     1.28140001    -1.61279936     0.32419592    -1.25370842
Ti      3.26966399     5.19622097     7.94166102     0.95566012    -0.06520166     1.86890936
Ti      1.03507102     0.07176702     5.94520702    -1.62811414     0.50710504     0.35551171
Ti      4.10076501     4.88030999     3.52373998     1.61367765     1.11494902     0.45177462
O       3.34148101     3.36256100     4.40836500     0.26794762    -0.25115933     1.28349852
O       0.72708102     1.94728502     0.30961198     2.32286581    -0.32205547    -1.89979732
O       4.44552002     3.75767601     8.52221001    -0.92348481     0.20405902     0.18021306
O       3.37679502     0.75432100     0.24143199     1.44633811     1.66985473    -1.28935086
O       1.82631801     4.64491401     9.09780700    -0.94351962    -0.40503709     0.67999507
O       3.99697700     0.67826098     4.93820097     0.69281409    -0.13820353    -0.35292312
O       0.88279899     4.89120702     4.26274601    -0.14763563    -0.68115901     1.37400729
O       0.08248598     3.54605401     2.38897001    -2.09015029    -0.16445913    -0.62330454
O       0.10473899     1.73335199     7.00144497    -0.54180106    -1.25592034    -0.71888277
O       2.70741702     2.03073601     2.16965001    -1.04625451     0.96775896     0.89135243
O       2.07188499     4.23609601     6.89194598     0.07403649    -1.41536865    -2.62547654
O       5.12400902     0.68593601     2.20818200     0.01855592     0.39461563     0.22845366
O       2.34775398     1.26107199     6.70884202     1.66619862     0.41727760     1.48391351
O       2.46877798     4.81992801     2.43751800     1.55843285    -0.46476358     0.31858140
