# total energy = -19073.18366703 eV

CRYSTAL
PRIMVEC
        5.17600016     0.00000000     0.00000000
        0.00000000     5.50899976     0.00000000
        0.00000000     0.00000000     9.26300011
PRIMCOORD
22 1
Ti      2.09630202     3.39452902     3.21266202    -0.28840486     1.66159069     1.63300773
Ti      3.54746098     2.12344400     5.80799703    -0.78766932     0.38692520    -1.41074195
Ti      4.49180297     2.38502399     1.29150301     1.72908603    -1.24173479    -1.20402286
Ti      0.48046500     2.96374699     8.03384698     0.59327328     0.65799465     0.02712952
Ti      1.94742800     0.53459603     1.42393602    -0.35841243    -0.25370704    -1.83418994
Ti      2.85231898     5.12109299     7.99761802     2.08074725     1.51545530     1.63991320
Ti      0.69560900     0.20047002     6.06957601    -0.46116660    -1.97513118    -2.33788697
Ti      4.68185100     4.87740798     3.40427901    -1.04788074     1.45133402     1.65091881
O       3.73915698     3.51866702     4.56119901    -0.55539243    -0.41864003    -0.15103051
O       1.01723801     2.00857502     0.23750999    -0.58710005    -0.03666137    -0.48719363
O       4.17198200     3.38052202     9.03628703    -0.67845910     1.71503032    -1.10279206
O       3.40879501     0.96232597     9.23106802     0.28196862    -1.16639398     0.27713006
O       1.67502200     4.82446501     0.08516801    -1.48131387    -1.24367211    -0.41022635
O       4.13999498     0.77097500     4.78554001     0.71765198    -0.58083119    -0.13561674
O       1.27519901     4.98791898     4.34638999    -0.80361659    -0.89127915    -0.14741760
O       0.33259399     3.68085302     2.31616601     1.19328233    -1.92021574    -0.31824407
O       4.92841098     1.54300498     6.93769298    -0.18568848     1.73308307     1.80377995
O       2.85973800     2.16024103     2.03084200    -1.33496328    -0.84144242     1.94126871
O       1.61192100     4.18535003     6.85601098    -0.48348147    -2.00534062     0.53323748
O       0.11018201     0.79276203     2.26240102     0.97119473     0.72177063    -0.68354474
O       2.16873501     1.04916401     6.72976903     1.44255730     1.10108871     0.71142991
O       3.07150700     4.65039501     2.26931102     0.04378770     1.63077678     0.00509259
