# total energy = -4975.46780957 eV

CRYSTAL
PRIMVEC
        4.80623682     0.00000000     0.00000000
        0.00000000     2.51021765     0.00000000
        0.00000000    -0.00013240     6.69391278
PRIMCOORD
6 1
Ti      2.40311818     1.25504257     3.34695639     0.00000000     0.00000000     0.00000000
Ti      0.00000000     0.00000000     0.00000000     0.00000000     0.00000000     0.00000000
O       2.40311818     0.48917864     1.30454503     0.00000000     0.02025516     2.35055583
O       2.40311818     2.02090655     5.38936781     0.00000000    -0.02025516    -2.35055583
O       0.00000000     0.76581193     4.65150277    -0.00000000    -0.02032484     2.35133719
O       0.00000000     1.74427327     2.04241000    -0.00000000     0.02032484    -2.35133719
