# total energy = -4978.50505893 eV

CRYSTAL
PRIMVEC
        4.99163203     0.00000000     0.00000000
       -0.00000756     2.99497922     0.00000000
       -2.49584413    -1.49754424     5.43610258
PRIMCOORD
6 1
Ti     -0.00021396     2.24634087     1.35902528    -0.00868056    -0.00884203    14.09114822
Ti      2.49599414    -0.74890601     4.07707663     0.00868056     0.00884203   -14.09114822
O       0.00005287     0.74873519     0.88549658     0.00551348     0.00979488    -7.62000826
O       2.49572720     0.74869962     4.55060539    -0.00551348    -0.00979488     7.62000826
O      -0.00002056    -0.74874515     3.60354786    -0.00226643    -0.00009333    -2.12673942
O       2.49580057     2.24617990     1.83255405     0.00226643     0.00009333     2.12673942
