# total energy = -19517.51169641 eV

CRYSTAL
PRIMVEC
        5.17600016     0.00000000     0.00000000
        0.00000000     5.50899976     0.00000000
        0.00000000     0.00000000     9.26300011
PRIMCOORD
23 1
Ti      1.86157201     3.21355501     3.36404598    -0.42593836    -0.57321378     2.90723150
Ti      3.36503099     2.26016398     5.85612998     0.45069141     0.55282287    -2.42116684
Ti      4.31092903     2.10829498     1.54162901     1.54748432    -1.07162463    -1.39159956
Ti      0.81744698     3.37319302     7.79988401     0.06824636     0.39652853     0.40403821
Ti      2.04007598     0.24402099     1.29606902    -1.15347444    -0.11002294    -1.51633128
Ti      3.24614502     5.23663302     7.92478699     0.11869656    -0.11141006    -0.14804829
Ti      0.81794801     0.57183899     5.91637798    -1.52406156    -0.45837490    -2.96229272
Ti      4.49655298     4.89083400     3.39086198     0.62790656     1.15965820     3.18248028
O       1.73646202     1.93126698     4.80640001    -0.59187305    -0.44513911    -0.76301397
O       3.52821502     3.49174798     4.40797997    -0.09947679     0.12473686     0.12324793
O       5.09066498     2.61271700     9.22938402     0.53794851     1.10257378    -0.34821774
O       3.67785502     0.61628602     0.22995397    -1.09265574    -0.38799041     0.11218833
O       1.70319402     4.63292698     9.00068398     0.36986233     0.63166577     0.96719563
O       4.28145502     0.63894099     4.90370100    -0.86344850     0.86260106    -0.38617470
O       0.88615102     4.68799697     4.47613599     1.34409018    -0.53756799     0.05929969
O       0.07175300     3.33476898     2.56907099     1.05530840     0.22895605    -0.60602338
O       5.07210700     2.19791501     6.64795801     0.21343455    -0.31185230     0.18433377
O       2.57358497     1.80913398     2.15771600    -0.92601709     1.68805224     0.47241801
O       2.62558997     3.68156000     6.92986798    -0.56739126    -0.32280495     0.53112583
O       0.16009199     0.72741499     2.20173201     0.82724015    -0.91933916    -0.40473575
O       5.04493301     4.87432002     7.16294998    -0.40845203    -0.11919484     0.79663887
O       2.34823998     1.08323001     6.99784599     0.02291908    -0.92714426     1.48529085
O       2.79997700     4.58575802     2.37364900     0.46895962    -0.45191577    -0.27788416
