# total energy = -19948.07550230 eV

CRYSTAL
PRIMVEC
        6.42828455     0.00000000     0.00000000
        0.00002716     5.05686344     0.00000000
        0.00000000     0.00000000    10.23481929
PRIMCOORD
24 1
Ti      2.32996008     2.99669263     3.79704496     0.32018988    -0.04289193     0.07341196
Ti      4.09835169     2.06017098     6.43777439    -0.32018988     0.04289193    -0.07341196
Ti      5.54399134     2.06017274     1.32032382     0.32086608     0.04253043    -0.07281161
Ti      0.88432043     2.99669110     8.91449564    -0.32086608    -0.04253043     0.07281161
Ti      2.32994662     0.46826103     1.32036486     0.31992866    -0.04853293    -0.07348524
Ti      4.09836515     4.58860275     8.91445460    -0.31992866     0.04853293     0.07348524
Ti      0.88430697     0.46825910     6.43773335    -0.32066142    -0.04861289    -0.07269437
Ti      5.54400480     4.58860468     3.79708599     0.32066142     0.04861289     0.07269437
O       2.03460225     1.78060761     5.22274994     0.90287663     0.62901985    -0.31225648
O       4.39370958     3.27625599     5.01206940    -0.90287663    -0.62901985     0.31225648
O       1.17959680     1.78062801     0.10537322    -0.90243723     0.62877302    -0.31265809
O       5.24871508     3.27623565    10.12944584     0.90243723    -0.62877302     0.31265809
O       4.39369611     0.74782422     0.10534002    -0.90337157    -0.62941040    -0.31208447
O       2.03461571     4.30903939    10.12947904     0.90337157     0.62941040     0.31208447
O       5.24870162     0.74780388     5.22278315     0.90278356    -0.62935564    -0.31264909
O       1.17961015     4.30905979     5.01203620    -0.90278356     0.62935564     0.31264909
O       0.23357098     3.07587099     2.76468003    -0.82350974     0.09730421     0.29225586
O       6.19474085     1.98099261     7.47013932     0.82350974    -0.09730421    -0.29225586
O       3.44772018     1.98094545     2.35276219    -0.82355062    -0.09708412    -0.29352496
O       2.98059164     3.07591822     7.88205698     0.82355062     0.09708412     0.29352496
O       0.23355751     0.54743928     2.35272950    -0.82415483     0.09686378    -0.29363115
O       6.19475431     4.50942439     7.88208967     0.82415483    -0.09686378     0.29363115
O       2.98057818     0.54748644     7.47017195     0.82358970     0.09658764    -0.29190002
O       3.44773365     4.50937717     2.76464734    -0.82358970    -0.09658764     0.29190002
