# total energy = -19934.52378594 eV

CRYSTAL
PRIMVEC
        5.93400000     0.00000000     0.00000000
        0.00000000     9.29699974     0.00000000
        0.00000000     0.00000000     4.64899994
PRIMCOORD
24 1
Ti      4.45602599     5.98319502     2.21712202     1.65979992     4.59052693    -1.29300415
Ti      4.39985901     2.76226497     2.36493001    -1.49900641    -3.51064624    -3.07789316
Ti      1.52570601     5.19301998     2.44378298    -4.05645102    13.16460328    -0.02245602
Ti      1.40388798     2.81542803     2.14322401     1.32032187    -6.57379823    -1.78127224
Ti      2.79495501     4.46876000     0.06438198     4.47688208     5.45937192    -1.56032441
Ti      2.91409498     1.09252099     4.58718098     1.23102897    -5.53067429    -3.56621037
Ti      0.07337900     4.19015898     4.59602502    -1.30550177     4.27218671    -0.04564455
Ti      5.93173798     1.11206001     4.31683300    -0.78335937    -9.26139959     2.43101956
O       4.68067099     5.35103400     0.50362598    -3.41526547     0.26084854     2.25525734
O       4.51020501     1.44971902     0.98144203    -0.50170623     0.53765824    -0.68130814
O       1.30481399     5.50442799     0.51987199     1.49577119    -1.33111614     1.67715333
O       1.59112502     1.37267499     1.05285899    -2.04422009     1.50545499    -0.53206377
O       4.75142300     8.83629703     3.83611802     0.44641849     3.84596346     1.37642645
O       4.57269502     3.31329201     4.01635298    -3.26375442    -1.56085560     0.84694098
O       1.52424601     9.20785698     4.03928398     0.61664641     1.18180492     0.11476715
O       1.52675902     3.33289099     3.89201501     1.66670693     0.02674411     0.69134779
O       3.04316401     6.02814497     3.65978901    -1.07286313    -2.71229553     0.64514324
O       2.87616498     1.66990401     2.76749298     1.76267956     1.03188924     2.16722737
O       5.89193502     5.62321600     3.50772400     0.38595204    -0.34136087    -2.03496309
O       0.05212698     1.63920199     2.68913199    -0.80696879     1.39042971    -1.04885261
O       2.92467000     6.77242399     1.74331100    -0.27428436    -0.05160849    -0.29831853
O       2.82660197     4.20022102     1.87607200     5.41426061    -5.12917967     0.87635441
O       0.22880799     7.03745400     1.89253698    -1.30747278    -1.40746122     0.25616990
O       5.86064302     3.85791102     1.71833399    -0.14561371     0.14291354     2.60450327
