# total energy = -4987.99043133 eV

CRYSTAL
PRIMVEC
        4.10103614     0.00000000     0.00000000
        1.00947670     3.97485273     0.00000000
       -2.55529376    -1.98745541     5.27585471
PRIMCOORD
6 1
Ti      0.75697435     2.98129176     1.31896359     0.00040238    -0.00040238     0.00000000
Ti      1.79824491    -0.99389430     3.95689078    -0.00040238     0.00040238     0.00000000
O       0.25241218     0.99370752     0.85939356    -0.00071271    -0.00120405    -1.18296757
O       2.30280691     0.99368986     4.41646081     0.00071271     0.00120405     1.18296757
O      -0.25238287    -0.99368473     3.49732075    -0.00120405    -0.00071271    -1.18296757
O       2.80760195     2.98108205     1.77853363     0.00120405     0.00071271     1.18296757
