# total energy = -19518.59836392 eV

CRYSTAL
PRIMVEC
        7.60600008     0.00000000     0.00000000
        0.00000000     7.60600008     0.00000000
       -1.89786986    -1.89786986     4.85670466
PRIMCOORD
23 1
Ti      3.74193002     6.60584302     1.31348202     1.53837670    -0.16089301    -1.10791962
Ti      3.78417498     2.86381901     1.08460698     0.50412358     0.13339402     1.16918826
Ti     -0.01612599     6.53694297     1.24661799    -1.08723791     0.95227551    -0.40474450
Ti     -0.01046300     2.86518900     1.12106798    -0.55538266    -0.93621331     0.53399210
Ti      5.63322121     2.95076823     3.62790180    -0.73100270    -0.62650660    -0.27156747
Ti      5.73061522    -0.94365279     3.68777080    -0.15180647     0.35310490     0.36268046
Ti      1.96491821     2.92999024     3.60585881     1.26511384    -0.09727027     0.17966593
Ti      1.87184525    -0.95681179     3.61319184    -0.03425791    -0.04499895     1.33236775
O       4.06049600     4.68355501     0.80221599    -1.24030165     0.89385874    -0.05837178
O       3.69956499     0.96271100     0.76923602    -0.06875158    -0.38305312     0.14708978
O      -0.23855803     4.70362099     0.70186001     0.63908058     1.80206990     1.30753705
O       0.12556302     0.96221601     0.84724098    -0.29032779    -1.04549038    -0.31187416
O       5.95342224     4.76370520     4.04154383    -0.10213274    -0.43163850     0.52478600
O       5.64772622     0.98980821     4.13479079     0.54625729    -0.78415899    -1.88703435
O       1.85462322     4.72144420     4.09794381    -0.61960215     0.66105966     0.23941864
O       2.03039421     1.02948121     3.90090979    -0.93756109    -1.44630546     0.88196533
O       3.83131822     2.96554921     3.34344082    -0.71601779     0.14243068    -1.52119504
O       3.85969921    -1.03774077     3.22512383    -1.12108238     0.16064336     0.40875696
O      -0.06859577    -0.89783176     3.22484982     1.57408959     0.26770619    -0.01717498
O       5.70666599     6.58909598     1.64284199    -0.09743610     0.59031599    -0.23988504
O       5.71338701     2.74640601     1.71399601     0.54704354    -0.11835126    -0.35144499
O       1.85490602     6.34169800     1.75992500     0.50987591     0.17619931    -1.14775450
O       1.82376600     3.02387200     1.62632499     0.62893989    -0.05817792     0.23151816
