# total energy = -19516.11184518 eV

CRYSTAL
PRIMVEC
        5.17600016     0.00000000     0.00000000
        0.00000000     5.50899976     0.00000000
        0.00000000     0.00000000     9.26300011
PRIMCOORD
23 1
Ti      1.90088300     3.19101798     3.48463902     0.31512352     0.13643975     1.67304213
Ti      3.36050801     2.30545700     5.87226999     2.56825919     0.18596745    -2.29205833
Ti      4.26694598     2.02413399     1.52822199     0.75150776     0.05768375    -1.26850718
Ti      0.78477198     3.42803801     7.83661500    -1.67542452    -0.55215489     0.70336410
Ti      1.96184798     0.06822000     1.35947900     2.07160158     1.25124067     0.03444457
Ti      3.18366702     5.29360001     7.88041802    -0.41082670    -0.03919725     2.08505257
Ti      0.88108102     0.60278200     5.91584203    -2.63888845    -0.71757973    -2.25302485
Ti      4.63310399     4.86121299     3.21031999    -1.38220320     1.50823024     3.10491804
O       1.75310602     1.82435402     4.89466101     0.64249064     0.88001875    -2.34015932
O       3.52306200     3.54742098     4.51149302    -0.15595058     0.93791718    -0.80886241
O       4.91825401     2.66117402     9.16036898     0.50868961     0.32512280     0.34614081
O       3.54801302     0.63645799     0.25301002    -0.90672995     0.11926324     0.71746557
O       1.48386000     4.77679302     9.14158499     0.41643119    -0.75103288    -1.52043322
O       4.30371401     0.85632801     4.86581598    -0.16890174    -0.76946718    -0.26371841
O       0.91631602     4.72940901     4.37627400     1.18858287    -0.11897681     1.10347803
O       0.23070101     3.43554899     2.44901998     0.66929440    -2.27992066    -1.06935974
O       0.07593302     2.24012901     6.45609898    -1.04390349     1.18284699     2.33383517
O       2.53248103     1.85663399     2.38087899     0.95104601    -1.25378581    -1.57383119
O       2.49262599     3.77533503     7.01883199    -0.05211191    -0.60635531    -0.29661697
O       0.32033798     0.58050199     2.00457502    -1.63675665     1.08907085     0.52714011
O       4.84881299     4.82228099     7.36216500     1.25374441     0.80325123    -1.31456003
O       2.41673901     1.21395500     7.06379100    -0.87905973    -1.22488506     1.61853241
O       3.00913299     4.32086502     2.16238398    -0.38601452    -0.16369680     0.75371840
