# total energy = -19076.45891842 eV

CRYSTAL
PRIMVEC
        5.93362535     0.00000000     0.00000000
        0.00000000     9.29710135     0.00000000
        0.00000000    -0.00006033     4.64855067
PRIMCOORD
22 1
Ti      4.52052843     6.93390845     2.23239512    -0.01613291     0.01034124    -0.00035815
Ti      4.61957319     2.27834156     2.30344301    -0.00371859     0.00842139    -0.01804709
Ti      1.49796073     7.06972851     2.60461637    -0.01795711    -0.01547059    -0.00742021
Ti      1.47317611     2.53000006     2.13828009     0.01738092     0.00792029     0.01095547
Ti      2.97674722     4.44305617    -0.18589497    -0.01717163    -0.00816994     0.01110614
Ti      2.95246395     9.20005678     0.28034288     0.01777713     0.01526824    -0.00718135
Ti     -0.16968111     4.69435479    -0.02080629     0.00409114    -0.00827407    -0.01793319
Ti     -0.06996690     9.33625586    -0.09210946     0.01608637    -0.01069476     0.00008048
O       4.32772974     5.58499118     0.89674876    -0.01636791     0.00691473    -0.01407294
O       4.44768561     0.90863073     0.95697986     0.00382735     0.02865187     0.02710818
O       1.52234781     0.99852846     0.90939986    -0.00899835     0.00874073    -0.00246826
O       4.38230810     8.47953435     3.69380673     0.00558598     0.00363297    -0.00529750
O       4.51582633     3.59908239     3.74762643     0.02110722     0.00274260     0.00519517
O       1.54038101     8.47529128     3.75340195     0.00439839     0.00940664     0.01208830
O       1.41164418     3.77167952     3.74856491     0.00495632    -0.00296140    -0.00786732
O       2.92794534     5.97435228     3.23401539     0.00879960    -0.00906340    -0.00301565
O       0.00265640     6.06405984     3.28134142    -0.00346919    -0.02815565     0.02697834
O       0.12257629     1.38773395     3.22080436     0.01590588    -0.00671058    -0.01393307
O       2.91003150     7.79453845     1.42916512    -0.00483522    -0.00947066     0.01215952
O       3.03845001     3.20103014     1.42437571    -0.00483393     0.00295060    -0.00783415
O       0.06802502     7.79033375     1.36965864    -0.00547568    -0.00373761    -0.00566209
O      -0.06600050     3.37345317     1.42320564    -0.02095630    -0.00228237     0.00541963
