# total energy = -19518.20545408 eV

CRYSTAL
PRIMVEC
        5.93400000     0.00000000     0.00000000
        0.00000000     9.29699974     0.00000000
        0.00000000     0.00000000     4.64899994
PRIMCOORD
23 1
Ti      4.49841901     6.93838498     2.32682999     0.11987953     0.89874898    -0.62505752
Ti      4.46543100     2.32134899     2.32787099     0.00238341    -0.77773046     0.49633468
Ti      1.46617998     7.03107303     2.34115397    -0.10660698     0.93508074    -0.67905868
Ti      1.48376602     2.35411501     2.27229902    -0.19121841    -1.20933836     0.24101350
Ti      2.98812502     4.57931698     0.03596601    -0.51145097    -0.29642465     0.35942930
Ti      2.96634700     9.24255799     4.54736500    -0.59744772     0.12327724     0.43092091
Ti      0.01465101     4.67434600     0.04424202     0.44222785     0.09047458    -0.21438252
Ti      5.85917402     0.02430400     0.02011599     1.03144598     0.35477586     0.03376708
O       4.40511400     5.54528597     0.90939100     0.21021399     0.55232279     0.22307079
O       4.42020799     0.92300800     0.77502602     0.00678360     0.52861952     1.19423955
O       1.47567299     5.61021200     0.93517601     0.27973073    -0.17450855    -0.28377559
O       1.43958300     0.89760098     0.92174602     0.30112077     0.18846810     0.01099893
O       4.45530001     8.33667798     3.68766999    -0.15262280    -0.15993836     0.81766125
O       4.45317198     3.69473397     3.84484701    -0.09406590     0.22337573    -1.15715677
O       1.47598399     8.46760098     3.67028699    -0.08247228    -0.96553444     0.31279641
O       1.51303402     3.74292302     3.77878500    -0.24920015     0.23111346    -0.53082784
O       3.06186402     1.33629199     3.18835601    -0.59052117     0.69370317    -0.33191103
O       0.00496802     6.10259302     3.22232702     0.08289163    -1.00829602     0.88416748
O       0.01455100     1.39880799     3.28155799    -0.31782986     0.75218397    -1.03268602
O       2.98942500     7.93500101     1.54880100    -0.20078986    -0.84869781    -0.50824403
O       2.92607603     3.26220000     1.37597801     0.46026337    -0.51251412     0.99347360
O       5.92416000     7.86808898     1.46326098    -0.12109566     0.24864916    -0.78615185
O       5.91475700     3.25772601     1.42583799     0.27838064     0.13218998     0.15137761
