# total energy = -19905.58658936 eV

CRYSTAL
PRIMVEC
        6.65292114     0.00000000     0.00000000
        0.35385133     7.07187273     0.00000000
        0.00000000     0.00000000    11.91098925
PRIMCOORD
24 1
Ti      2.62105581     4.19078506     4.41889206    -0.02812582    -1.10808494     0.63924565
Ti      4.38571639     2.88108741     7.49209733     0.02812582     1.10808494    -0.63924565
Ti      5.88187407     2.88108982     1.53655504     0.13447234     0.67212004    -0.58690799
Ti      1.12489820     4.19078291    10.37443448    -0.13447234    -0.67212004     0.58690799
Ti      2.44413028     0.65484896     1.53660277    -0.02812582    -1.10808494    -0.63924565
Ti      4.56264191     6.41702371    10.37438675     0.02812582     1.10808494     0.63924565
Ti      0.94797267     0.65484634     7.49204953    -0.13447234    -0.67212004    -0.58690799
Ti      6.05879960     6.41702633     4.41893986     0.13447234     0.67212004     0.58690799
O       2.23028851     2.49012650     6.07808665     1.49944658     1.47259500    -0.14921763
O       4.77648368     4.58174596     5.83290274    -1.49944658    -1.47259500     0.14921763
O       1.34540637     2.49015504     0.12263030    -1.29531660     1.11674545     0.14470251
O       5.66136589     4.58171749    11.78835874     1.29531660    -1.11674545    -0.14470251
O       4.59955815     1.04580966     0.12259168    -1.49944658    -1.47259500    -0.14921763
O       2.40721404     6.02606280    11.78839737     1.49944658     1.47259500     0.14921763
O       5.48444036     1.04578119     6.07812534     1.29531660    -1.11674545     0.14470251
O       1.52233177     6.02609141     5.83286405    -1.29531660     1.11674545    -0.14470251
O       0.45694844     4.30151372     3.21745540     0.48772457     0.06535618     0.59265441
O       6.54982382     2.77035874     8.69353405    -0.48772457    -0.06535618    -0.59265441
O       3.70680526     2.77029285     2.73807716     0.50342759     0.61347033    -0.06749585
O       3.29996700     4.30157961     9.17291202    -0.50342759    -0.61347033     0.06749585
O       0.28002291     0.76557742     2.73803915     0.48772457     0.06535618    -0.59265441
O       6.72674935     6.30629504     9.17295003    -0.48772457    -0.06535618     0.59265441
O       3.12304147     0.76564331     8.69357199    -0.50342759    -0.61347033    -0.06749585
O       3.88373079     6.30622915     3.21741733     0.50342759     0.61347033     0.06749585
