# total energy = -19073.48300232 eV

CRYSTAL
PRIMVEC
        5.93400000     0.00000000     0.00000000
        0.00000000     9.29699974     0.00000000
        0.00000000     0.00000000     4.64899994
PRIMCOORD
22 1
Ti      4.45597000     6.80658900     2.46579702     0.28329608    -0.19402863     0.06829572
Ti      4.33012001     2.45479098     2.13540801     1.34234518    -1.05871511     1.74114425
Ti      1.61574399     7.32764100     2.56331200     0.57525678    -0.53218127     0.42221129
Ti      1.55235501     2.32196400     2.05325398    -0.54900349     0.28632432     1.55942041
Ti      3.01216300     4.68696402     4.61204602    -0.56500630     0.34179487     0.12987495
Ti      3.00304999     0.12502802     0.11954500     1.29824071    -0.34803339    -0.98478713
Ti      5.80286702     4.48721601     4.34984297     0.91596638     0.25345044     0.21305017
Ti      5.86323800     8.95695399     0.21652499    -0.03337190    -1.42318043    -0.18252885
O       4.45986998     5.47553898     0.91762600    -0.36537086    -0.03445254     1.13017432
O       4.61774499     0.75597500     1.05274501     0.44770559     1.01294329     0.03822512
O       1.52676903     0.54702698     1.14687299    -1.87116859     1.94569409     0.65077448
O       4.27796202     8.26756298     3.81086002     1.61278573     1.71512802     0.48506784
O       4.21699699     4.13507602     3.39033000     1.04173914    -1.88944425    -1.50806929
O       1.56396902     8.70971402     3.66906999    -1.39450439     0.47470964     0.34666685
O       1.49375101     3.77461302     3.56653301    -0.78338971     0.35021189     0.04104382
O       2.82240999     6.27014001     3.59197802    -0.44675351    -0.28233680    -1.11423296
O       2.94788702     1.56988099     3.21743398     0.49087211    -0.34412583     0.54418498
O       0.09590898     6.33954700     3.61807699     0.22645822    -1.35352588    -0.62867969
O       3.17594098     7.94047900     1.46983701    -0.79358491    -1.51125052     0.75913237
O       3.00830498     2.97443002     1.10342400    -1.49292009     1.77048081    -1.85600138
O       0.12548301     7.53239798     1.50311999    -1.04425059     1.05907147    -1.69087274
O       5.81245598     3.17529200     1.21266798     1.10465817    -0.23853418    -0.16409455
