# total energy = -19517.37776722 eV

CRYSTAL
PRIMVEC
        5.93400000     0.00000000     0.00000000
        0.00000000     9.29699974     0.00000000
        0.00000000     0.00000000     4.64899994
PRIMCOORD
23 1
Ti      4.60097901     7.22442698     2.20342602    -0.38411498    -1.23046050     0.39576671
Ti      4.51048701     2.30940599     2.34831798    -0.45577963    -1.11947313    -0.05019721
Ti      1.33489999     7.01607800     2.12477303    -0.72158500     0.46887606     0.41482477
Ti      1.48387302     2.27630801     2.36434702     0.62995933    -0.64629099     0.69346535
Ti      3.02424502     4.45690500     0.20372298    -1.45998862    -0.63364321     0.99664866
Ti      2.93782101     9.23544997     0.02518799    -0.35269712     0.89243332    -0.47198684
Ti      5.89213102     4.59443801     0.04600598     1.06652124     0.73336117    -0.62090390
Ti      5.92853402     0.06957501     4.57964301     0.37291525     1.14216904    -1.07460556
O       4.36099099     5.49093100     1.04254300    -0.04017016     0.73412273    -0.22935251
O       4.43504998     0.92466999     0.75177698     0.09033806     0.75287276     1.68541711
O       1.41618902     5.61217102     0.84261200     1.00686520     0.44009255     0.80601980
O       1.43859799     0.93165301     0.78345602     0.92628242     0.20898628     1.25930674
O       4.48642299     8.47542502     3.55448899    -0.47617260    -0.30303727     0.88345117
O       4.44074499     3.58088800     4.05702502    -0.40961314    -0.27111830    -2.30558105
O       1.53732299     8.40128999     3.77162200    -0.47452503    -1.50862619    -1.44987723
O       1.49442899     3.71765201     3.83633001     0.42048402     0.52976186    -0.55913673
O       2.94472201     1.31184199     3.20363299     0.67584557     0.55135348    -0.51636101
O       5.82778799     6.08572798     3.24935798     0.24334241    -0.02072567    -0.30938661
O       0.02834501     1.53036600     3.32488602    -0.47084218    -0.28692031    -0.90152526
O       2.95467800     7.85979302     1.46274699    -0.20576366    -0.65582824     0.12834797
O       2.96483799     3.22692599     1.59004402     0.30956531     0.86436355    -0.47617748
O       5.88425702     8.05546699     1.25449399     1.16222031    -1.51869232     1.13937039
O       0.14916501     3.12266998     1.36512199    -1.45308726     0.87642306     0.56247299
