# total energy = -19957.93919487 eV

CRYSTAL
PRIMVEC
        7.60600008     0.00000000     0.00000000
        0.00000000     7.60600008     0.00000000
       -1.89786986    -1.89786986     4.85670466
PRIMCOORD
24 1
Ti      3.87525999     6.68534100     1.12488499    -0.10737394    -3.24124800     3.89021062
Ti      3.78846698     2.69043800     1.19730099     0.87392600     1.60495826    -1.99658062
Ti     -0.00068798     6.64386901     1.29777000    -0.52218790     2.48690328    -0.36588946
Ti     -0.05832502     2.83074501     1.31811602    -0.79818667    -1.44392153    -1.82901816
Ti      5.75148423     2.88775624     3.75045883    -1.58463497     0.46426581    -1.79603115
Ti      5.68371022    -0.86042977     3.70278080    -1.66755539    -0.62897511    -0.59434311
Ti      1.98100425     2.86478423     3.55563381     0.57976495    -1.64964251     1.33214561
Ti      1.84951423    -1.08341480     3.57358181     1.76558311     3.70748997    -0.91909336
O       3.85829002     4.78457500     1.02331498    -0.59511984    -0.02069559    -2.89864504
O       3.96702102     0.79759601     0.66013798    -0.47016290     2.00827503     0.00151644
O       7.16624998     4.99269999     0.69435199     1.60704523    -2.39059204     0.75449076
O       0.09580198     0.98599898     0.80752702    -1.02984058     0.81007649     0.68856431
O       5.46665923     4.92406025     3.93597181     1.35399331    -2.57915347     1.14489672
O       5.38219222     1.01595825     4.20019281     0.99450281     1.19367751    -0.18088437
O       2.07295022     4.80391225     3.62065879    -1.11133533    -3.53550624     1.61166293
O       2.36685924     0.86357520     4.14631781    -2.07169311     1.48598711     0.18779062
O       3.70014021     2.86621920     3.12395281     1.50326698    -0.15680830     0.64462825
O       3.77322324    -1.07873878     3.09512784     0.23368225     1.24599074    -0.68628477
O       0.04629020     2.67789724     3.22583880    -1.09316688     0.52492844     0.92921914
O      -0.05526780    -0.92108878     3.35654182     1.17780300     0.03557457    -0.68173031
O       5.74061699     6.71764399     1.76679001    -0.19657788     1.00778411    -1.02517634
O       5.61522601     2.86593000     1.69379398     1.91529105    -0.33512671     1.03955062
O       1.86117698     6.94979701     1.58432398    -0.18866299    -1.33543019    -0.05469715
O       1.88999401     2.72767800     1.45346797    -0.56836005     0.74118941     0.80369809
