# total energy = -19916.74382994 eV

CRYSTAL
PRIMVEC
        6.70777530     0.00000000     0.00000000
        0.00002245     3.43734508     0.00000000
        0.00000000     0.00000000    10.13438257
PRIMCOORD
24 1
Ti      2.43125934     2.03696758     3.75978365    -0.72450397     1.34844846    -1.15086014
Ti      4.27653857     1.40037766     6.37459902     0.72450397    -1.34844846     1.15086014
Ti      5.78503217     1.40037888     1.30736719    -0.72359354    -1.34819855     1.15264500
Ti      0.92276579     2.03696651     8.82701563     0.72359354     1.34819855    -1.15264500
Ti      2.43124816     0.31829509     1.30740784    -0.72450397     1.34844846     1.15086014
Ti      4.27654979     3.11905025     8.82697499     0.72450397    -1.34844846    -1.15086014
Ti      0.92275456     0.31829377     6.37455838     0.72359354     1.34819855     1.15264500
Ti      5.78504334     3.11905157     3.75982429    -0.72359354    -1.34819855    -1.15264500
O       2.12306122     1.21034769     5.17149786     4.91137964    -1.58618432     3.21910514
O       4.58473673     2.22699755     4.96288481    -4.91137964     1.58618432    -3.21910514
O       1.23088164     1.21036152     0.10433914    -4.91128246    -1.58666614     3.21955791
O       5.47691637     2.22698372    10.03004322     4.91128246     1.58666614    -3.21955791
O       4.58472551     0.50832501     0.10430627    -4.91137964     1.58618432     3.21910514
O       2.12307240     2.92902023    10.03007614     4.91137964    -1.58618432    -3.21910514
O       5.47690519     0.50831117     5.17153073     4.91128246     1.58666614     3.21955791
O       1.23089266     2.92903411     4.96285194    -4.91128246    -1.58666614    -3.21955791
O       0.24372274     2.09078816     2.73754955     1.89828139    -0.57694342     1.10667649
O       6.46407516     1.34655712     7.39683311    -1.89828139     0.57694342    -1.10667649
O       3.59761879     1.34652503     2.32967399     1.89969370     0.57717276    -1.10755375
O       3.11017912     2.09082025     7.80470853    -1.89969370    -0.57717276     1.10755375
O       0.24371157     0.37211557     2.32964163     1.89828139    -0.57694342    -1.10667649
O       6.46408638     3.06522966     7.80474089    -1.89828139     0.57694342     1.10667649
O       3.11016794     0.37214766     7.39686542    -1.89969370    -0.57717276    -1.10755375
O       3.59763001     3.06519757     2.73751719     1.89969370     0.57717276     1.10755375
