# total energy = -19518.48950962 eV

CRYSTAL
PRIMVEC
        7.60600008     0.00000000     0.00000000
        0.00000000     7.60600008     0.00000000
       -1.89786986    -1.89786986     4.85670466
PRIMCOORD
23 1
Ti      3.73007000     6.68065598     1.20233299     1.38489566    -1.52300586    -1.21542879
Ti      3.72818798     2.66886498     1.26994602     1.63708318     2.48912009     0.06576576
Ti     -0.06839500     6.65028999     1.14933801    -0.46353588    -0.91501353     0.12399432
Ti      0.07178898     2.80586600     1.25980201    -1.30703415     1.01498834    -0.78691418
Ti      5.67418022     2.86266821     3.62202481    -0.67786543     0.72480788     0.23122582
Ti      5.63577624    -0.79750277     3.59584080     1.61964261    -0.57261908     0.24190207
Ti      1.96279822     2.81144020     3.72072182     0.45589764     0.12917099     1.11317830
Ti      1.90589420    -0.95665076     3.52480680    -1.01574476    -0.08294716     0.54830595
O       3.70135102     4.67088402     0.84551602    -0.20814271     1.49343765    -0.30988721
O       3.98594101     0.93746099     0.82592800    -0.54414488    -1.10896888    -0.90303784
O       0.13013299     4.74056301     0.84426097     0.01426809     0.18408643     0.23533573
O      -0.07585502     0.96621098     0.67313003     0.04811307    -0.00700317     0.75357853
O       5.69239222     4.70340820     4.09390179     0.39389598     0.80692946    -0.70542175
O       5.87658120     1.03675624     4.13432781     0.14565151    -0.98699673    -1.41123123
O       2.02821723     4.72005824     3.90487079    -0.99646071     1.28861604     0.95479108
O       1.85990420     0.93896920     4.12815882    -0.44140690    -1.15603732    -0.46816515
O       3.81029322     2.91675224     3.53381382     0.38322024    -1.09502167    -1.92721788
O       3.83217522    -0.71820878     3.13343879    -1.06011276    -0.31783706     0.42111574
O      -0.01986277    -0.99089176     3.18181284     0.61625766     0.26838342     0.17222695
O       5.66042097     6.65418500     1.59263699     0.64753669    -0.23380207    -0.06391765
O       5.71086098     2.90063699     1.58099202     0.93904976    -0.26957950     1.58770590
O       1.91259898     6.72647802     1.56202599    -0.47538892     0.24639328     0.51042870
O       1.92818601     2.72266601     1.66484799    -1.09567473    -0.37710255     0.83166656
