# total energy = -19960.59512958 eV

CRYSTAL
PRIMVEC
        5.93400000     0.00000000     0.00000000
        0.00000000     9.29699974     0.00000000
        0.00000000     0.00000000     4.64899994
PRIMCOORD
24 1
Ti      4.46767900     6.92986301     2.30270999     0.34233506     1.85592734     0.47149242
Ti      4.42347598     2.27986800     2.32255498    -0.79694020    -0.52606847     0.00105235
Ti      1.51152099     6.92908200     2.35065101    -0.26166127     1.34683844    -0.25213147
Ti      1.40977598     2.34672700     2.31053901     0.65096294    -0.54737752    -0.07826030
Ti      3.01922599     4.66040102     0.00280400    -0.76552054    -0.99123597     0.00434131
Ti      2.94984101     0.09491101     4.64681402     0.02547784    -0.59764004    -0.45885878
Ti      0.00501602     4.59096698     4.61184699     0.93119349    -0.56186364    -0.57787596
Ti      0.00958001     9.29199500     0.02360099    -0.18831872    -0.44231115    -0.37070693
O       4.53497098     5.39574101     0.86344799    -0.89056027     1.67929506     1.59084367
O       4.40538801     0.82830898     0.91132900     0.68421888     1.11449470     0.91656905
O       1.43232898     5.52348001     0.89990401     0.69991933    -0.02746685     0.51313119
O       1.54543798     0.97000598     0.91563000    -0.80654199    -0.24198203     0.15420120
O       4.43294201     8.37839101     3.78636599     0.54751148    -0.04898416    -0.56369658
O       4.48629302     3.80009401     3.63797702    -0.49295574    -0.16904624     0.01403026
O       1.46897398     8.50537497     3.73563599    -0.16188211    -1.11741779    -0.15993887
O       1.51672302     3.75951400     3.61817298    -0.05893331     0.92681181     0.82796597
O       2.99396301     6.17830902     3.33318500    -0.13114816    -0.45156636    -0.51570924
O       2.88434500     1.50856602     3.24379500     0.82715942    -0.39713068     0.03123172
O       5.93317300     6.15595800     3.34165199     0.03590238    -0.45936195    -0.79265186
O       0.07264799     1.40035900     3.31785500    -0.89582281     0.76831867    -0.70406524
O       2.94772398     7.96970901     1.34487599     0.00048825    -2.27335740     1.66116517
O       2.99739700     3.20220701     1.39562901     0.01165507     0.70837029    -0.67981150
O       0.01044300     7.94950698     1.58043802    -0.11695156    -0.61254344    -0.80155713
O       5.81377601     3.04462702     1.31290400     0.81041279     1.06529817    -0.23076045
