# total energy = -4986.91570826 eV

CRYSTAL
PRIMVEC
        2.73032049     0.00000000     0.00000000
        0.21376678     4.27265869     0.00000000
       -0.00000118    -0.00005552     4.27934134
PRIMCOORD
6 1
Ti      1.47204294     2.13630144     2.13967057     0.00000000     0.00000000     0.00000000
Ti      0.00000000     0.00000000     0.00000000     0.00000000     0.00000000     0.00000000
O       1.40681994     0.83266732     0.83398054    -0.97080469     1.30759439     1.31945926
O       1.53726590     3.43993556     3.44536055     0.97080469    -1.30759439    -1.31945926
O       0.06522242     1.30361161     2.97365198     0.97069593    -1.30762550     1.31946595
O       0.14854308     2.96899146     1.30568912    -0.97069593     1.30762550    -1.31946595
