# total energy = -19875.33000293 eV

CRYSTAL
PRIMVEC
        9.66571780     0.00000000     0.00000000
        0.00003005     3.42908223     0.00000000
        0.00000000     0.00000000    15.37734178
PRIMCOORD
24 1
Ti      3.50337539     2.03207084     5.70488426     0.26213255     0.04778011     1.96942667
Ti      6.16237207     1.39701106     9.67245798    -0.26213255    -0.04778011    -1.96942667
Ti      8.33606942     1.39701217     1.98372543     0.26299233    -0.04763587    -1.97031422
Ti      1.32967811     2.03206987    13.39361694    -0.26299233     0.04763587     1.97031422
Ti      3.50336076     0.31752979     1.98378709     0.26257426     0.04769784    -1.96897107
Ti      6.16238676     3.11155225    13.39355528    -0.26257426    -0.04769784     1.96897107
Ti      1.32966341     0.31752862     9.67239632    -0.26212972     0.04771969    -1.96983676
Ti      8.33608411     3.11155342     5.70494592     0.26212972    -0.04771969     1.96983676
O       3.05927114     1.20743804     7.84693999     0.53731217     0.52845394    -2.07346331
O       6.60647638     2.22164393     7.53040225    -0.53731217    -0.52845394     2.07346331
O       1.77366514     1.20745196     0.15831838    -0.53686402     0.52881338    -2.07291670
O       7.89208245     2.22163001    15.21902340     0.53686402    -0.52881338     2.07291670
O       6.60646169     0.50710274     0.15826844    -0.54024220    -0.52874242    -2.07528468
O       3.05928584     2.92197916    15.21907334     0.54024220     0.52874242     2.07528468
O       7.89206776     0.50708889     7.84698986     0.53909111    -0.52899876    -2.07501832
O       1.77367963     2.92199308     7.53035238    -0.53909111     0.52899876     2.07501832
O       0.35119592     2.08576219     4.15380372    -1.54535467     0.53157809     0.48659380
O       9.31455160     1.34331971    11.22353846     1.54535467    -0.53157809    -0.48659380
O       5.18406761     1.34328792     3.53491625    -1.54647953    -0.53155289    -0.48749600
O       4.48167992     2.08579404    11.84242572     1.54647953     0.53155289     0.48749600
O       0.35118123     0.37122108     3.53486717    -1.54483145     0.53154955    -0.48520926
O       9.31456629     3.05786089    11.84247481     1.54483145    -0.53154955     0.48520926
O       4.48166529     0.37125286    11.22358747     1.54555985     0.53157938    -0.48535632
O       5.18408224     3.05782904     4.15375464    -1.54555985    -0.53157938     0.48535632
