# total energy = -39035.14994526 eV

CRYSTAL
PRIMVEC
        7.60600008     0.00000000     0.00000000
        0.00000000     7.60600008     0.00000000
       -3.79573973    -3.79573973     9.71340985
PRIMCOORD
46 1
Ti      2.11949342     4.80176146     6.02981061    -1.54418353    -0.11511527     0.19723402
Ti      3.67764298     6.88624700     1.16039199     0.52976803     0.09112919     1.48471287
Ti      1.97792242     0.75722047     6.08749861    -0.54286241    -0.35241610    -0.65142445
Ti      3.65603799     2.88978801     1.31199101     1.48610718    -0.18627315    -0.39921122
Ti     -1.73469954     4.78517747     6.09513363     0.39275107     0.52924790    -0.51205261
Ti     -0.04984500     6.68624801     1.12945401     0.29016401     0.73538874     0.61591056
Ti     -1.87064555     0.94317447     6.07604462     0.66870073    -1.37340386    -0.13927105
Ti     -0.00557499     2.91788002     1.16232598    -1.63869141    -0.72167293     1.36255791
Ti      3.75711043     0.94894747     8.45717963     2.19985262    -0.31187339     0.24928063
Ti      5.45756199     2.69279400     3.69335002     2.46857928    -0.11468770     0.26866213
Ti      3.75011243    -2.82825057     8.41131663     0.91634691     0.84675020     1.33477842
Ti      5.79552098    -1.09799199     3.57179298    -0.82966162     0.63346375     1.35098357
Ti      0.03351946     0.99106443     8.37638564    -1.63910638    -0.06354921    -0.02723956
Ti      1.79365200     2.87660102     3.49697298    -3.11917224    -0.15600637     2.78022770
Ti      0.05951143    -2.77444558     8.54352363    -1.03438270     0.22881515     0.52669479
Ti      1.89238198    -0.94479502     3.67623902     0.82696556     0.18802536    -0.94297455
O       2.18945743    -1.02258254     5.55562964     0.12475486     0.48866405     0.66775790
O       3.62295002     1.14042799     0.85126500     1.05179267    -1.87556055    -0.89052634
O      -1.93356753     2.75004045     5.73451960     0.38579057     0.22972044    -0.26048987
O       0.36647901     4.75628698     0.72133500    -1.17158735     0.35822654    -0.38501204
O      -1.92291858    -1.00790655     5.52815661    -0.34412146    -0.05817612     1.05809728
O      -0.10559102     0.92908798     0.83995601    -0.20635836    -0.08874552    -0.14252221
O       3.69154145     2.99892246     8.82009261    -0.10040547    -2.55048052     0.41714185
O       5.61952600     4.70745302     4.19600898    -0.24714713    -1.14196901    -0.94529600
O       3.86053844    -0.97992355     8.94773165    -0.16669265     1.36424507    -0.25179003
O       5.92620803     0.86764600     3.91913101    -0.90863154     0.74657587     0.89718344
O      -0.06276857     2.89132644     8.90181462     0.99598531    -0.38822515    -0.22685237
O       1.93631602     4.73387400     4.08499198     0.37741160    -0.84141979    -0.41204566
O      -0.05478456    -0.70008854     9.12895263     0.20042862     0.19450891     0.11790981
O       1.71874998     1.05798498     4.27472801    -0.19869158    -0.15824169    -0.57226144
O       1.91947543     0.89146343     8.00284264     0.12369428     0.75970547     0.78181697
O       3.61731503     2.55724298     3.32776299     1.19975406     0.64651519    -0.16569352
O       1.87271246    -2.44477053     8.22882663     1.56808195    -1.08534429    -1.43203660
O       3.82779702    -0.73941000     3.09527902    -0.53534219    -0.67088025     0.92720519
O      -1.89098056     0.94598747     8.07084160    -0.53290915     0.69179361    -0.24346325
O      -0.11299898     2.89946301     3.29464602     0.57404347     0.41771083    -0.44923025
O      -1.74722755    -2.75340956     8.25102164    -1.33993914     0.15309768    -1.33308329
O       0.05430502    -1.14642399     3.23485301     0.49724177     0.28058716    -0.34340206
O       3.97853443     4.60470543     6.50335964    -2.16608888     0.05143828     0.51933141
O       5.75246601     6.48550102     1.70782998    -0.21556523    -0.17501686    -2.52472705
O       3.86602844     0.73545546     6.44678763    -1.06158626     0.69161004     0.46145971
O       5.56039002     2.96069999     1.82620302    -0.50873152     0.54512164    -1.68795556
O       0.11116543     4.85745244     6.41156665     0.85466740    -0.81344129     0.60266372
O       1.93567498     6.78190399     1.65451601    -1.18253974    -0.42557532    -0.53188791
O      -0.08344257     0.37172643     6.50742361     1.74814717     1.77856796     0.23883809
O       1.70093401     2.51929800     1.70751100     1.75336831     1.01716530    -1.38999905
