# total energy = -19959.44417284 eV

CRYSTAL
PRIMVEC
        7.60600008     0.00000000     0.00000000
        0.00000000     7.60600008     0.00000000
       -1.89786986    -1.89786986     4.85670466
PRIMCOORD
24 1
Ti      3.89141402     6.44388498     1.18387503    -0.68585514     1.14167718     0.30203506
Ti      3.73773201     2.68936901     1.23270502    -0.26990474    -1.16652099     0.02138182
Ti      0.06870298     6.87591201     1.17565002     0.37311246    -0.19186299    -0.67233293
Ti     -0.01402198     2.89807101     1.28305898    -0.17284479    -0.03522773    -0.40447633
Ti      5.63486325     2.99132120     3.66800782     0.80019291    -0.09179253     2.67921390
Ti      5.75713023    -0.77027877     3.54809081    -1.42624056    -0.17158135     0.34169177
Ti      1.89198123     2.72491220     3.62254081    -2.00543576     0.74529443     0.29184089
Ti      1.85818422    -0.95270379     3.54693583     1.63707701    -0.74931564     1.13624393
O       3.75011200     4.48890901     0.83508901     0.34388518     1.75092010     0.53422967
O       3.75257400     0.76613801     0.59731702     0.03902576     2.47043922     1.38320439
O       0.20693000     4.62650600     0.79783699    -0.65288252     2.66931078     0.30787172
O       0.08726101     1.00371102     0.72392400    -0.08640324    -0.64104053     0.95522560
O       5.89406622     4.91233225     4.05736681    -0.69610510    -1.94762294    -0.00735824
O       5.58120325     0.92909724     4.21069180    -0.32944508     0.96327033    -2.01664166
O       1.83673725     4.63083223     4.17933280    -0.06866185    -1.07729057    -1.63732409
O       1.79314622     0.89770121     4.10173579     0.36764552    -0.96897715    -0.19426234
O       3.63850921     2.84492124     3.34273479     2.19334233     0.07133811    -0.48703834
O       3.87323123    -1.02236780     3.27781580    -0.70362995    -0.25372427    -0.67631454
O      -0.11599179     2.83142320     3.12120982     1.52757497     0.00431200     2.86552536
O       0.04015820    -0.78377379     3.16557980    -0.30820391    -0.37539457    -0.76591186
O       5.65056002    -0.54682002     1.57549202     1.46525527    -1.52297115     0.10717699
O       5.66513102     2.77488702     1.93942102    -2.20618808    -0.49368541    -4.63525823
O       2.00270099     6.70240601     1.57204802    -0.94471673    -0.32489757     0.40825020
O       1.81805300     2.58957602     1.66759299     1.80940578     0.19534375     0.16302780
