# total energy = -19955.88449011 eV

CRYSTAL
PRIMVEC
        5.53805518     0.00000000     0.00000000
        0.00003035     5.89416544     0.00000000
        0.00000000     0.00000000     9.91190103
PRIMCOORD
24 1
Ti      2.00729663     3.49287699     3.67724466     0.02267765    -0.48942972     0.41738456
Ti      3.53078891     2.40128851     6.23465665    -0.02267765     0.48942972    -0.41738456
Ti      4.77622726     2.40129054     1.27866639     0.02441495     0.48955725    -0.41748843
Ti      0.76185827     3.49287519     8.63323503    -0.02441495    -0.48955725     0.41748843
Ti      2.00728156     0.54579438     1.27870614     0.02267765    -0.48942972    -0.41738456
Ti      3.53080397     5.34837129     8.63319528    -0.02267765     0.48942972     0.41738456
Ti      0.76184321     0.54579219     6.23461690    -0.02441495    -0.48955725    -0.41748843
Ti      4.77624233     5.34837349     3.67728441     0.02441495     0.48955725     0.41748843
O       1.75284012     2.07543591     5.05796733     0.84876363     0.76581699     0.04706637
O       3.78524542     3.81872965     4.85393398    -0.84876363    -0.76581699    -0.04706637
O       1.01624123     2.07545965     0.10204858    -0.84838748     0.76557479     0.04643954
O       4.52184436     3.81870591     9.80985245     0.84838748    -0.76557479    -0.04643954
O       3.78523035     0.87164687     0.10201642    -0.84876363    -0.76581699     0.04706637
O       1.75285518     5.02251863     9.80988461     0.84876363     0.76581699    -0.04706637
O       4.52182930     0.87162313     5.05799949     0.84838748    -0.76557479     0.04643954
O       1.01625618     5.02254242     4.85390182    -0.84838748     0.76557479    -0.04643954
O       0.20122880     3.58516556     2.67745181     0.29576542    -0.17395730     0.20420943
O       5.33685674     2.30899994     7.23444950    -0.29576542     0.17395730    -0.20420943
O       2.97026082     2.30894501     2.27853036     0.29613849     0.17433423    -0.20447117
O       2.56782471     3.58522049     7.63337078    -0.29613849    -0.17433423     0.20447117
O       0.20121373     0.63808278     2.27849870     0.29576542    -0.17395730    -0.20420943
O       5.33687180     5.25608272     7.63340244    -0.29576542     0.17395730     0.20420943
O       2.56780965     0.63813771     7.23448110    -0.29613849    -0.17433423    -0.20447117
O       2.97027589     5.25602779     2.67742016     0.29613849     0.17433423     0.20447117
