# total energy = -19918.80681499 eV

CRYSTAL
PRIMVEC
        7.79080152     0.00000000     0.00000000
        0.00002608     3.99233309     0.00000000
        0.00000000     0.00000000    11.77066309
PRIMCOORD
24 1
Ti      2.82380642     2.36585297     4.36683205     0.14643955    -0.05763361     2.36331391
Ti      4.96702136     1.62648030     7.40383115    -0.14643955     0.05763361    -2.36331391
Ti      6.71907382     1.62648172     1.51845252     0.14667198     0.05758656    -2.36343012
Ti      1.07175401     2.36585173    10.25221086    -0.14667198    -0.05758656     2.36343012
Ti      2.82379344     0.36968648     1.51849973     0.14643955    -0.05763361    -2.36331391
Ti      4.96703440     3.62264690    10.25216366    -0.14643955     0.05763361     2.36331391
Ti      1.07174098     0.36968495     7.40378395    -0.14667198    -0.05758656    -2.36343012
Ti      6.71908680     3.62264844     4.36687926     0.14667198     0.05758656     2.36343012
O       2.46584715     1.40576841     6.00647929     1.90698509     0.78074508    -1.41488759
O       5.32498069     2.58656486     5.76418392    -1.90698509    -0.78074508     1.41488759
O       1.42961773     1.40578447     0.12118556    -1.90670304     0.78070317    -1.41573220
O       6.36121016     2.58654879    11.64947729     1.90670304    -0.78070317     1.41573220
O       5.32496765     0.59039831     0.12114739    -1.90698509    -0.78074508    -1.41488759
O       2.46586013     3.40193495    11.64951552     1.90698509     0.78074508     1.41488759
O       6.36119718     0.59038225     6.00651746     1.90670304    -0.78070317    -1.41573220
O       1.42963054     3.40195108     5.76414574    -1.90670304     0.78070317     1.41573220
O       0.28307381     2.42836334     3.17954974    -1.73136248     0.54829258     0.35580507
O       7.50775396     1.56396999     8.59111346     1.73136248    -0.54829258    -0.35580507
O       4.17848432     1.56393272     2.70581927    -1.73089146    -0.54821133    -0.35596011
O       3.61234345     2.42840060     9.06484376     1.73089146     0.54821133     0.35596011
O       0.28306083     0.43219673     2.70578168    -1.73136248     0.54829258    -0.35580507
O       7.50776700     3.56013653     9.06488134     1.73136248    -0.54829258     0.35580507
O       3.61233047     0.43223400     8.59115099     1.73089146     0.54821133    -0.35596011
O       4.17849736     3.56009927     3.17951216    -1.73089146    -0.54821133     0.35596011
