# total energy = -19947.63444176 eV

CRYSTAL
PRIMVEC
        5.65235266     0.00000000     0.00000000
        1.76505878     5.75104918     0.00000000
        0.00000000     0.00000000    10.23481929
PRIMCOORD
24 1
Ti      3.09467815     3.40806645     3.79704496     0.55936401    -2.37097786     0.97804981
Ti      4.32273320     2.34298286     6.43777439    -0.55936401     2.37097786    -0.97804981
Ti      5.59387620     2.34298484     1.32032382    -1.39181450    -0.62411393     0.41239224
Ti      1.82353524     3.40806469     8.91449564     1.39181450     0.62411393    -0.41239224
Ti      2.21214889     0.53254195     1.32036486     0.55936401    -2.37097786    -0.97804981
Ti      5.20526248     5.21850753     8.91445460    -0.55936401     2.37097786     0.97804981
Ti      0.94100587     0.53253981     6.43773335     1.39181450     0.62411393     0.41239224
Ti      6.47640551     5.21850967     3.79708599    -1.39181450    -0.62411393    -0.41239224
O       2.41051248     2.02504222     5.22274994     1.40409230     1.83025563    -0.80118947
O       5.00689888     3.72600714     5.01206940    -1.40409230    -1.83025563     0.80118947
O       1.65871839     2.02506542     0.10537322    -0.18891547    -0.38241266     0.97251010
O       5.75869303     3.72598399    10.12944584     0.18891547     0.38241266    -0.97251010
O       4.12436959     0.85048248     0.10534002    -1.40409230    -1.83025563    -0.80118947
O       3.29304176     4.90056689    10.12947904     1.40409230     1.83025563     0.80118947
O       4.87616375     0.85045933     5.22278315     0.18891547     0.38241266     0.97251010
O       2.54124756     4.90059011     5.01203620    -0.18891547    -0.38241266    -0.97251010
O       1.27897186     3.49811417     2.76468003     0.35277862     1.35862798     1.28881736
O       6.13843950     2.25293520     7.47013932    -0.35277862    -1.35862798    -1.28881736
O       3.72298409     2.25288157     2.35276219     1.06234294     1.07371699     0.25778790
O       3.69442726     3.49816779     7.88205698    -1.06234294    -1.07371699    -0.25778790
O       0.39644251     0.62258951     2.35272950     0.35277862     1.35862798    -1.28881736
O       7.02096878     5.12845986     7.88208967    -0.35277862    -1.35862798     1.28881736
O       2.81189798     0.62264313     7.47017195    -1.06234294    -1.07371699     0.25778790
O       4.60551338     5.12840624     2.76464734     1.06234294     1.07371699    -0.25778790
