# total energy = -4837.47192145 eV

CRYSTAL
PRIMVEC
        5.33391537     0.00000000     0.00000000
       -0.00000660     1.77797179     0.00000000
       -2.66699163    -0.88910159     6.05090014
PRIMCOORD
6 1
Ti     -0.00022828     1.33352124     1.51272466    -0.08745354    -0.05527951   160.86578188
Ti      2.66714527    -0.44465109     4.53817459     0.08745354     0.05527951  -160.86578188
O       0.00005631     0.44447368     0.98564203     0.08527864     0.05390705  -155.43281108
O       2.66686053     0.44439643     5.06525727    -0.08527864    -0.05390705   155.43281108
O      -0.00002447    -0.44454834     4.01109195    -0.00072917     0.00027922    -0.19545636
O       2.66694121     1.33341840     2.03980735     0.00072917    -0.00027922     0.19545636
