# total energy = -4988.07722425 eV

CRYSTAL
PRIMVEC
        4.07887656     0.00000000     0.00000000
       -0.00000760     3.33726245     0.00000000
       -2.03946550    -1.66866936     4.78012239
PRIMCOORD
6 1
Ti     -0.00017703     2.50307122     1.19503073    -0.00197435    -0.00475731     6.13083273
Ti      2.03958050    -0.83447834     3.58509182     0.00197435     0.00475731    -6.13083273
O       0.00004208     0.83430859     0.77864293     0.00136937     0.00473032    -1.13906289
O       2.03936129     0.83428419     4.00147967    -0.00136937    -0.00473032     1.13906289
O      -0.00001973    -0.83430100     3.16870403    -0.00109143    -0.00030313     0.07879226
O       2.03942299     2.50289378     1.61141852     0.00109143     0.00030313    -0.07879226
