# total energy = -19517.27920441 eV

CRYSTAL
PRIMVEC
        5.93400000     0.00000000     0.00000000
        0.00000000     9.29699974     0.00000000
        0.00000000     0.00000000     4.64899994
PRIMCOORD
23 1
Ti      4.57538202     7.13317100     2.25577398     0.61716269     0.37041460    -0.00189593
Ti      4.30612600     2.26055398     2.31383599     1.86046971    -0.05855304     0.34786679
Ti      1.53453401     6.99374402     2.25361298     0.25879063     0.28104225     0.33132353
Ti      1.38090899     2.26768200     2.32272199    -1.42722298     0.36213719     0.15339901
Ti      2.98780201     4.51854997     0.14993200     0.80233104    -1.11114815    -0.56763063
Ti      2.89223498     9.23101901     4.57288600     0.54615625     0.50452750     0.48688716
Ti      0.02796300     4.71051299     0.04423800    -0.41281365    -1.96924412    -0.73328969
Ti      5.91794402     0.05454198     0.03327101    -0.07651323     1.33542968     0.16720096
O       4.44194299     5.50877798     0.96006501    -0.33252115     1.13399704     0.07639856
O       4.40388901     0.88587198     0.94686802     0.62204830    -0.13800093    -0.38373086
O       1.59470898     5.56437102     0.94610902    -0.26910204    -0.12541537    -0.62886224
O       1.50179302     1.00735700     0.80668500     0.33233886    -1.04758943    -0.15591612
O       4.62213801     8.33782200     3.88283500    -1.79058118    -0.92764588    -1.43295114
O       4.47255198     3.64889198     3.81722200    -0.61004510     1.30109927    -0.44501596
O       1.51918401     8.29636203     3.70667698     0.36537215     0.78768577     1.07432583
O       1.35593299     3.73657602     3.58558799     1.03523862     1.43997308     1.32997688
O       2.90122999     1.31211298     3.15332601     0.17550254    -0.00034941     0.52640940
O       0.08902502     6.30802698     3.14748199    -0.87774615    -2.71850680     1.83495921
O       5.84339401     1.48510103     3.27395001     0.52751986    -1.04374846    -0.17540355
O       3.03119201     8.06121698     1.58114998     0.33094327    -0.90132652    -0.46194076
O       2.93623702     3.13222798     1.35047997    -0.38690566     0.68415049     0.05793495
O       0.22184798     7.91302100     1.41300502    -1.44397938     0.96317931    -1.11249207
O       5.89542700     3.16806598     1.36656802     0.15355714     0.87789193    -0.28755383
