# total energy = -39040.18654991 eV

CRYSTAL
PRIMVEC
        7.60629642    -0.00000847    -0.00005503
       -0.00000847     7.60629642    -0.00005503
       -3.80314186    -3.80314186     9.70738094
PRIMCOORD
46 1
Ti      1.90140938     4.75410628     6.08634951     0.00026842     0.00014552    -0.00334938
Ti      3.80378847     6.65566157     1.22659421    -0.05032782    -0.00018332    -0.01127558
Ti      1.90141592     0.95095800     6.08636841     0.00043066     0.00014810    -0.00345248
Ti      3.80379277     2.85250537     1.22662169    -0.05032885     0.00015272    -0.01127506
Ti     -1.90170261     4.75406507     6.02556873     0.00018769    -0.00029388    -0.38358457
Ti     -0.00096715     6.65566505     1.22661146     0.05011313    -0.00002520    -0.01124112
Ti     -1.90170523     0.95091683     6.02561174     0.00004654    -0.00029465    -0.38258646
Ti     -0.00096295     2.85251512     1.22663899     0.05011442     0.00000694    -0.01124087
Ti      3.75256729     0.95064380     8.49633634    -0.21922211     0.00023526     0.14540905
Ti      5.70487155     2.85219422     3.64688218     0.00008202     0.00013421    -0.01403026
Ti      3.75257613    -2.85250439     8.49634479    -0.21942111     0.00023526     0.14533269
Ti      5.70487583    -0.95094565     3.64690963     0.00008279     0.00024503    -0.01403077
Ti      0.05089981     0.95064426     8.49630252     0.21751361     0.00014835     0.14581554
Ti      1.90171776     2.85221040     3.63685631     0.00005605     0.00000360     0.04541727
Ti      0.05090959    -2.85250397     8.49633612     0.21830859     0.00014835     0.14575049
Ti      1.90172202    -0.95093713     3.63688378     0.00005554    -0.00006788     0.04541675
O       1.90161281     2.85236300     5.65167761    -0.00018461    -0.00015787     0.19999333
O       3.79108038     4.75393614     0.78681048    -0.09316524    -0.00005091    -0.00029619
O       1.90161702    -0.95079338     5.65170497    -0.00018435    -0.00000026     0.19999359
O       3.79108658     0.95078782     0.78683242    -0.09317167    -0.00004885    -0.00043760
O      -1.90153232     2.85238151     5.65477774     0.00017895    -0.00059367    -0.09284463
O       0.01214620     4.75394052     0.78685330     0.09328249    -0.00005965     0.00101610
O      -1.90152808    -0.95079315     5.65480522     0.00017895     0.00084435    -0.09284360
O       0.01215914     0.95079226     0.78685231     0.09309351    -0.00005888     0.00022137
O       3.83952471     2.85237309     8.89701734     0.45080994     0.00041112    -0.17647519
O       5.70466450     4.75392905     4.04754686     0.00000591    -0.00005271    -0.19105412
O       3.83952884    -0.95082537     8.89704488     0.45081045    -0.00062452    -0.17647493
O       5.70466844     0.95078075     4.04756038    -0.00000951    -0.00005014    -0.19045788
O      -0.03645627     2.85235411     8.89704571    -0.45022373     0.00028642    -0.17695161
O       1.90151405     4.75393159     4.06552482    -0.00001183     0.00001491     0.09286879
O      -0.03645193    -0.95079876     8.89707327    -0.45022501    -0.00050728    -0.17695033
O       1.90151736     0.95078349     4.06555216    -0.00005734     0.00001106     0.09325575
O       1.90159735     0.95084003     8.06240758     0.00015889    -0.00000283    -0.00128092
O       3.80245099     2.85240578     3.21622491     0.05980362    -0.00007662     0.01020651
O       1.90163433    -2.85230813     8.06244212    -0.00007893    -0.00000437    -0.00050317
O       3.80245531    -0.95074209     3.21625235     0.05980054     0.00014270     0.01020780
O       0.00069459     2.85241083     3.21625528    -0.05968767    -0.00009744     0.01023428
O       0.00069881    -0.95073792     3.21628266    -0.05968484     0.00021880     0.01023608
O       3.84992108     4.75387994     6.51473130     0.26638721    -0.00009642     0.21025667
O       5.70471374     6.65546184     1.62854375     0.00002854     0.00022909    -0.07074702
O       3.84989800     0.95073164     6.51472756     0.26607071    -0.00009616     0.20936449
O       5.70471798     2.85230524     1.62857120     0.00002725    -0.00016892    -0.07074573
O      -0.04682315     4.75388490     6.51471797    -0.26582517    -0.00005528     0.21088633
O       1.90156052     6.65546604     1.63419653     0.00003317     0.00013627     0.06101487
O      -0.04679785     0.95073667     6.51474616    -0.26615298    -0.00005502     0.21021939
O       1.90156471     2.85230481     1.63422414     0.00003291    -0.00017586     0.06101256
