# total energy = -19517.61384976 eV

CRYSTAL
PRIMVEC
        5.17600016     0.00000000     0.00000000
        0.00000000     5.50899976     0.00000000
        0.00000000     0.00000000     9.26300011
PRIMCOORD
23 1
Ti      1.88273899     3.18770200     3.37717899     0.88044838     0.22338961     2.82949956
Ti      3.28809999     2.20050501     5.87682499     0.86124660     0.79118761    -2.74677069
Ti      4.43320898     2.11500701     1.54663402    -0.29589012    -0.86726864    -1.40137618
Ti      0.89085598     3.35687399     7.80683502    -1.78874799     0.74147686     0.09299375
Ti      1.98953199     0.24431801     1.31064102    -0.50761257     0.80836105    -0.81406530
Ti      3.26202299     5.08755998     7.93296198    -0.09697305     1.82417677     0.24068517
Ti      0.69439401     0.68569798     5.84223098    -0.96839068    -1.28449996    -2.32931826
Ti      4.53055298     4.92880300     3.38077899     0.26466920     0.58949092     3.83536614
O       1.69675198     1.94472698     4.79663098    -0.92320430    -0.10836355    -0.54431483
O       3.46595102     3.55252198     4.50872601     0.43136314     0.40729092    -0.28200024
O       0.23975100     2.51657099     0.02532499    -0.00409191    -0.00828950     0.29756571
O       3.48626603     0.70773102     0.24944198     0.27799395     0.02542385    -0.58733840
O       1.59710002     4.72364902     9.00736601     0.16304477     0.03763402     0.67483204
O       4.27149998     0.86356398     4.76435799    -0.58983751    -0.38443714    -0.51110285
O       0.99411302     4.81848700     4.46111699    -0.32607077    -0.37352024     0.08244065
O       0.13673300     3.32122998     2.68789499    -0.14153825     0.16910332    -1.20377321
O       4.98653301     2.22560198     6.65291201     0.61995105     0.07548145     1.14061043
O       2.63874098     1.87211401     2.23307698    -0.05530574     0.85149029    -0.30999314
O       2.54010298     3.64448002     6.96676899    -0.02408790    -1.32997791     0.34347971
O       0.21503001     0.74699301     2.22040901     0.82078565    -1.25829218    -0.64483548
O       4.90756399     4.81420300     7.06670301     0.83983239    -0.02558711     0.96540383
O       2.36298301     0.79705799     6.82054197     0.39381370    -0.45393332     1.66223784
O       2.83816799     4.63250898     2.41772698     0.16860195    -0.45033737    -0.79022654
