# total energy = -19519.09862734 eV

CRYSTAL
PRIMVEC
        7.60600008     0.00000000     0.00000000
        0.00000000     7.60600008     0.00000000
       -1.89786986    -1.89786986     4.85670466
PRIMCOORD
23 1
Ti      3.79977100     6.64092101     1.23738098     1.24694564     0.30590740    -0.02509398
Ti      3.69856300     2.79549403     1.07563600     1.01274788    -0.10270815     0.81073803
Ti      0.05204998     6.60042800     1.23639798    -1.25581672     1.87052118     0.81754246
Ti      0.04713800     2.90959200     1.08091301    -0.45528032    -1.71585770     0.56728301
Ti      5.55054425     2.91247125     3.65621982    -0.04737876    -0.43565097    -0.77134769
Ti      5.68825623    -1.00845679     3.63972484     0.72663130     0.64839158     0.16503943
Ti      1.96434421     2.89296525     3.71038280    -0.07474508    -0.45890840     0.06113417
Ti      1.95713221    -0.99056478     3.60311281    -0.66813843     0.52391877     0.60870273
O       3.79091898     4.72747201     0.84301201    -0.51478030     0.03559642    -0.17515441
O       4.02241201     0.89241600     0.78093100    -0.29668099     1.19670318    -0.24127112
O       0.06086703     4.80613199     0.79725199     0.87267516    -0.77828067    -0.09188535
O      -0.11850702     0.95716300     0.81962698     0.47504388    -0.08845652    -0.21609616
O       5.50712425     4.76429121     4.12771082     0.59201601    -0.28587078    -0.74930201
O       5.77503923     0.93504620     4.06205882     0.37952865     0.91146669    -0.61780135
O       1.79816721     4.76929924     4.07352482     0.05873147    -0.62685524    -0.56438975
O       1.75389322     0.97211824     4.02998782    -0.23474412    -0.32106611     0.44491157
O       3.76402725     2.74070222     3.41629080     0.48115745     0.11438508    -1.14208419
O       3.86918022    -0.78553579     3.20452079    -1.26052673    -0.39806965     0.19547410
O       0.03828523    -1.02866279     3.19401683    -0.43048819    -0.02812942     0.44456216
O       5.68575301     6.50566601     1.62775298     0.41672713     0.09018765     0.25471106
O       5.86092899     2.99775002     1.73596099    -0.25487792    -0.17205109     0.54644704
O       1.92342299     6.85018601     1.67655302     0.24409677    -0.57786311    -0.50462701
O       1.95028498     2.74045001     1.62474799    -1.01284430     0.29268986     0.18250700
