# total energy = -19959.02589953 eV

CRYSTAL
PRIMVEC
        7.60600008     0.00000000     0.00000000
        0.00000000     7.60600008     0.00000000
       -1.89786986    -1.89786986     4.85670466
PRIMCOORD
24 1
Ti      3.60364902     6.74750498     1.30319502     3.26680195    -0.95398556    -0.72649992
Ti      3.79444700     2.91944702     1.15794100     0.07521894     0.66116405     3.20031731
Ti      0.15015801     6.67671001     1.20348602    -2.83534626     1.07561909    -0.54040109
Ti     -0.08613402     2.75831498     1.18169402     0.70931877    -0.55707187    -1.18063533
Ti      5.74522422     2.84482922     3.73631180    -1.17337016    -2.25063913    -2.12454884
Ti      5.84919321    -1.09717177     3.47737881    -1.29989393     1.22419909     0.46671865
Ti      1.79725522     2.79750622     3.65107780     1.46105074     1.98251642    -1.20154380
Ti      1.88726325    -0.92842476     3.76224683     1.22242811    -1.48725106     1.36846734
O       3.87633702     4.87003802     0.70887002    -0.66549405     0.06951031     1.62140665
O       3.72530100     1.04420700     0.85449801    -0.05541475    -1.95523546    -0.35245261
O       0.28656398     4.82207901     0.71831801    -0.99829159    -0.00707902     1.83345074
O      -0.11938001     0.88940101     0.58389502     0.41607407    -1.75654774     0.57143817
O       5.99096821     4.60849021     3.80716684     0.24967298     3.30172114     0.72700746
O       5.82435823     0.92585820     4.10860980    -1.06285639     0.14408159    -0.23162897
O       1.71214421     4.75777021     4.04045383    -0.29230883     1.95400545     0.48101604
O       1.83015724     1.05359524     4.17629379     0.79133931    -2.00035603    -1.49449746
O       3.77916225     3.08606822     3.13289882    -0.32508346    -0.58844371     0.29112098
O       3.85204620    -1.13702675     3.31880783    -1.14530681     0.68256695    -1.27278215
O       0.03322323     2.66078222     3.32979382    -1.89261854     0.52871285    -1.10991248
O       0.11843320    -0.68099677     3.25808882    -1.94870049    -1.02363702    -0.77177346
O       5.68827501     6.76142499     1.58590300     0.94540270    -0.56748202     0.55227959
O       5.61787200     2.67318402     1.51995899     0.89049985     0.65940310     0.46971630
O       1.84119498    -0.69088397     1.82059199     1.54398273    -0.05810284    -1.26582860
O       1.67182498     2.54532998     1.56536399     2.12289459     0.92233115     0.68956601
