# total energy = -19958.31637285 eV

CRYSTAL
PRIMVEC
        5.93400000     0.00000000     0.00000000
        0.00000000     9.29699974     0.00000000
        0.00000000     0.00000000     4.64899994
PRIMCOORD
24 1
Ti      4.44794598     7.00149800     2.35441002     3.09483982    -0.09414740    -1.09960775
Ti      4.49893898     2.57404102     2.40909298    -2.52521505    -2.38622502     0.76079896
Ti      1.57775800     6.77703799     2.17899703    -3.35657488     1.04515922     0.35410634
Ti      1.49353400     2.48579299     2.44751098     1.64015411    -3.52786235    -1.52783800
Ti      2.95888300     4.69147198     4.62924502     0.21803991     1.06397508     1.55727585
Ti      3.00899598     9.04320602     0.00077699    -2.34916152     1.94219919     0.17576685
Ti      5.89014100     4.57059699     4.60169700     0.36675258     2.59699282     0.37241852
Ti      5.92004401     0.06620701     4.58510603     1.80962432     0.05225486     2.22898914
O       4.54099101     5.67810301     0.76408199    -0.66558275    -0.82038070    -0.03804566
O       4.33739498     0.54459800     0.88742803     1.22575846     2.95545975     1.72962648
O       1.49993598     5.66511499     0.67483699    -0.35850370    -0.31482861     0.92069979
O       1.35609899     0.86049200     1.10865999    -0.21939334     0.59561015    -0.95208037
O       4.38748901     8.31429801     3.76631398     0.93248650    -1.32104486    -2.11020799
O       4.40470802     3.76203902     3.90961201     0.36899226    -1.24382098    -1.74773116
O       1.42267198     8.26405798     3.99507800    -0.16640083    -0.04246796    -2.32274189
O       1.56145702     3.82700701     3.69609401    -1.08924903    -0.04122740     0.93348820
O       2.96149598     5.91258901     3.11086398     0.52982691     0.46869248    -0.25746342
O       3.07636401     1.63950399     3.22956500    -0.95582132    -0.86160167     0.07536498
O       5.91604798     5.92378799     3.09136200    -0.11771106     0.07414987     0.07715164
O       5.89429800     1.59942300     3.36516302    -0.29083404     0.15801106    -0.49455830
O       2.91831199     7.80724598     1.42350501     0.45365872    -0.48072551     0.78757598
O       2.86163298     3.41789500     1.49829601     0.99865181     0.07798364    -0.76622631
O       0.01879802     7.78409400     1.31420101    -0.73937035    -0.42168164     2.04649912
O       5.85751701     3.31248999     1.44467098     1.19503274     0.52552648    -0.70326074
