# total energy = -19517.75009654 eV

CRYSTAL
PRIMVEC
        5.93400000     0.00000000     0.00000000
        0.00000000     9.29699974     0.00000000
        0.00000000     0.00000000     4.64899994
PRIMCOORD
23 1
Ti      4.55062499     7.00974999     2.21568197    -0.26336051     0.86336468     0.16163426
Ti      4.45888900     2.29075699     2.33222802     0.23274149     0.26422286    -0.38370361
Ti      1.45354301     6.98385099     2.28444999    -0.29374967     0.10860704    -0.95716627
Ti      1.49615702     2.33527402     2.35594099    -0.63929655     0.51288539    -0.57007472
Ti      2.90240799     4.56785400     0.10425898     0.86211306    -0.72874372     0.24229777
Ti      2.98061801     0.08822999     0.02317399     1.21385373    -0.35385566     0.48125670
Ti      5.91162200     4.69076600     0.08964601    -0.76318083    -0.24803261    -0.50100818
Ti      0.08268802     9.21773301     4.43099299    -1.14428068     0.20551735     0.76719844
O       4.40113300     5.53404800     1.10514202    -0.07943066    -0.43912119    -0.93703221
O       4.48148899     0.92897998     0.94659697    -0.48096899    -0.31755681    -0.50247191
O       1.48725499     5.50437798     0.94704302    -0.54283773     0.94274083     0.66776433
O       1.45121199     0.89179601     0.83810802     0.08115716    -0.08705193     0.22141500
O       4.43762300     8.33982198     3.77826201    -0.26361530     0.60079941    -0.54303750
O       4.30421800     3.75857598     3.90192602     1.38735698    -0.08580083    -1.26284252
O       1.51789102     8.35520802     3.49601601     0.31293037     1.11854008     1.81726564
O       1.46094001     3.75513300     3.79041002    -0.18050436     0.12685519    -0.25122438
O       2.88484301     1.41175002     3.15827101     0.66048785    -0.62008706     0.92246176
O       5.83586800     6.21479198     3.36548899     0.90095988    -1.23529237     0.12413316
O       5.91223298     1.45265098     3.28404300     0.25430019    -0.23977397    -0.17297797
O       3.02308099     7.81727802     1.36396002    -0.89690139    -0.13763995     0.49249088
O       3.00442400     3.31299302     1.43551299    -0.80740614    -1.12716613     1.13271946
O       0.03260801     7.72297598     1.28211303     0.39287628     0.84108683    -0.25192449
O       5.89045099     3.32222103     1.57392300     0.05675661     0.03550258    -0.69717365
