# total energy = -19517.97634691 eV

CRYSTAL
PRIMVEC
        7.60600008     0.00000000     0.00000000
        0.00000000     7.60600008     0.00000000
       -1.89786986    -1.89786986     4.85670466
PRIMCOORD
23 1
Ti      3.75344100     6.55009398     1.30566099     1.78686722     0.01155557    -0.96103295
Ti      3.68719701     2.74258799     1.12924599     0.33203367     0.17462682     1.00263265
Ti      0.10020601     6.76621902     1.23286102    -1.48471184    -0.67135308     0.03057557
Ti     -0.06020100     2.95090899     1.02702498    -0.16195565     0.75940645    -0.73591787
Ti      5.63360920     3.07683021     3.54600283     0.20498693    -2.17405365     0.76674027
Ti      5.74418121    -0.99824579     3.56739483     0.19533501     1.67699752     0.21669497
Ti      2.04391622     2.76348023     3.72033382    -0.18956622     0.31657157     0.01908273
Ti      1.93931725    -1.07270679     3.63275980    -0.15003652    -0.37105969     0.88057899
O       3.55704200     4.64606502     0.94103199     0.31812117     0.05962416    -1.02016783
O       3.81947100     0.92507602     1.06014201    -0.09549749    -0.41126353    -1.28362887
O      -0.02562001     4.88631001     0.67314802     0.55061197    -0.11280642     1.36175958
O      -0.08668098     1.14167198     0.59786700    -0.11698267    -2.01954340     2.08718401
O       5.88230621     4.80927022     4.12211282     0.40698136     0.64199904    -0.64762822
O       5.81286921     1.07863220     3.94339384     0.34058568     0.26543153    -0.15068984
O       1.86514724     4.62428922     4.21893283    -0.21672531     0.86690612    -1.05751235
O       1.87407620     0.81534424     3.96987979    -0.21578943     0.52659709     1.33381348
O       3.85156523     2.88230121     3.47973481    -1.74428254    -0.09008712    -0.98216974
O       3.82561523    -1.16980479     3.17727382    -0.55022348    -0.13634077     2.03819599
O       0.01171223    -1.09185777     3.16403682     1.37530159     0.30754288     0.48979148
O       5.71341400     6.63282402     1.74564499     0.42944226     0.28832130    -2.59581962
O       5.62472802     2.98405300     1.64480201     1.13990878     0.10691242    -0.81636335
O       1.98360102     6.77273700     1.73273799    -2.29697634     0.02871075    -0.50148306
O       1.72162902     2.82884902     1.77801598     0.14257132    -0.04469556     0.52536373
