# total energy = -4983.18788836 eV

CRYSTAL
PRIMVEC
        3.04282993     0.00000000     0.00000000
        2.24360420     4.20675718     0.00000000
       -0.00001443    -0.00006500     4.93366154
PRIMCOORD
6 1
Ti      2.64320961     2.10334599     2.46683087     0.00000000     0.00000000     0.00000000
Ti      0.00000000     0.00000000     0.00000000     0.00000000     0.00000000     0.00000000
O       1.95865745     0.81982231     0.96149802    -4.59639034     2.22973348     2.66918377
O       3.32776180     3.38686977     3.97216378     4.59639034    -2.22973348    -2.66918377
O       0.68454604     1.28349755     3.42832986     4.59637105    -2.22991654     2.66941234
O       1.55904339     2.92319460     1.50533189    -4.59637105     2.22991654    -2.66941234
