# total energy = -19519.16517675 eV

CRYSTAL
PRIMVEC
        5.93362535     0.00000000     0.00000000
        0.00000000     9.29710135     0.00000000
        0.00000000    -0.00006033     4.64855067
PRIMCOORD
23 1
Ti      4.56622308     7.08349521     2.22580453     0.00392145    -0.00745672    -0.01162165
Ti      4.48656003     2.30576293     2.33396455     0.01124447     0.00570657     0.01360474
Ti      1.36740216     7.08349521     2.22580453    -0.00392145    -0.00745672    -0.01162165
Ti      1.44706520     2.30576293     2.33396455    -0.01124447     0.00570657     0.01360474
Ti      2.96681267     4.49288952     0.21678695     0.00000000    -0.00381629    -0.00929531
Ti      2.96681267     9.31828812    -0.03832106     0.00000000     0.01849832     0.00843682
Ti      0.00000000     4.67581138    -0.08617453     0.00000000    -0.01373458    -0.00544791
Ti      0.00000000     9.36808373    -0.05107942     0.00000000    -0.03225784     0.01740663
O       4.40286217     5.59153636     0.91046553    -0.01394207    -0.01116913    -0.01419584
O       4.45172172     0.87990038     0.93669809     0.00655092    -0.00808844     0.00331570
O       1.53076306     5.59153636     0.91046553     0.01394207    -0.01116913    -0.01419584
O       1.48190352     0.87990038     0.93669809    -0.00655092    -0.00808844     0.00331570
O       4.43231167     8.31414354     3.76022552     0.00741892     0.00691678    -0.00013164
O       4.40324238     3.80936026     3.70414551    -0.00180312     0.02445531     0.00751251
O       1.50131357     8.31414354     3.76022552    -0.00741892     0.00691678    -0.00013164
O       1.53038285     3.80936026     3.70414551     0.00180312     0.02445531     0.00751251
O       2.96681267     1.39062775     3.28285669     0.00000000    -0.00392325    -0.00291769
O       0.00000000     6.04274868     3.19824041     0.00000000     0.00791103     0.00671212
O       0.00000000     1.41478913     3.26567283     0.00000000     0.02521276    -0.00513115
O       2.96681267     7.78121906     1.53802371     0.00000000    -0.01305581     0.00897444
O       2.96681267     3.16844840     1.42418262     0.00000000     0.00434594    -0.01519523
O       0.00000000     7.95124350     1.37019023     0.00000000    -0.00303287     0.01352838
O       0.00000000     3.22231734     1.39230972     0.00000000    -0.00687616    -0.01403900
