# total energy = -19072.26072886 eV

CRYSTAL
PRIMVEC
        5.93400000     0.00000000     0.00000000
        0.00000000     9.29699974     0.00000000
        0.00000000     0.00000000     4.64899994
PRIMCOORD
22 1
Ti      4.38287501     6.84446602     2.23586199    -1.45732161    -1.59308799     0.78573842
Ti      4.38699598     2.46533399     2.07703002     0.09217717    -1.17461406    -0.74098115
Ti      1.41011799     7.28897698     2.64360603     1.14807075    -0.34266442     1.07904817
Ti      1.53442400     2.31251898     2.20048802     0.35596448     0.75983506     0.78633851
Ti      3.10448401     4.52740798     4.52760499     0.54389034     0.00570759    -1.15783169
Ti      3.02866302     0.21644403     4.59891099     1.37796885     0.78560189     0.50978284
Ti      5.87971298     4.43368201     4.39091401     0.12698400    -1.12158246    -1.88085213
Ti      5.92390902     9.21494600     0.40197600    -1.72339695     0.77189302     0.28384629
O       4.78660699     5.24839399     0.88768499    -2.19991998     2.01509205     1.37095359
O       4.15542802     0.61146802     1.39283998     2.18199296     0.94801442    -1.24147382
O       1.49351801     0.61202498     1.37010801    -0.34696253     0.58225584     0.18008322
O       4.51242898     8.50424100     3.95805601    -0.45912335     0.64967430    -1.04299564
O       4.33843698     3.95185501     3.11196700     0.92599703     1.29393540     2.21052168
O       1.53694198     8.45687699     4.14282502    -0.99904776    -0.62101240    -2.60332982
O       1.62643803     3.92553400     3.47055602    -1.10619698    -0.53565715    -0.23606001
O       2.87440398     6.15668599     3.53566398    -0.28520358     0.87733117    -0.87932892
O       3.09936999     1.84133299     3.33840501    -0.46765350    -2.56169310     0.64250401
O       5.86612699     6.24709100     3.33819498     1.31162382    -0.78866793     0.27365958
O       2.92633998     7.76333898     1.46251098    -0.56643918    -1.33804063     0.93409961
O       2.86293698     2.86511999     0.90083002     0.46426273     1.51045245     0.89895390
O       5.76752200     7.79679198     1.50172698     1.71842469    -0.11959054     0.20165118
O       0.18605401     3.07813701     1.12349998    -0.63609167    -0.00318200    -0.37432782
