# total energy = -39040.39541683 eV

CRYSTAL
PRIMVEC
        7.60629642    -0.00000847    -0.00005503
       -0.00000847     7.60629642    -0.00005503
       -3.80314186    -3.80314186     9.70738094
PRIMCOORD
46 1
Ti      1.90152002     4.71730722     6.05972034     0.00000874    -0.00709805     0.00400192
Ti      3.82979983     6.66300793     1.19194076     0.00221809     0.00031316    -0.00006351
Ti      1.90153459     0.95810982     5.91716143    -0.00001286    -0.03600677    -0.00421275
Ti      3.79845484     2.84278820     1.24696559    -0.01456865     0.01149721    -0.01399658
Ti     -1.90166149     4.80059562     6.06723120    -0.00000206    -0.00582612    -0.00661648
Ti     -0.02679154     6.66293539     1.19199037    -0.00216487     0.00040058    -0.00002263
Ti     -1.90165418     0.96177017     6.13387568     0.00016455    -0.00744335    -0.00697463
Ti      0.00445101     2.84275755     1.24701334     0.01444189     0.01136479    -0.01398398
Ti      3.88801478     0.94816736     8.54616759     0.00196304     0.00558187     0.00510493
Ti      5.70476832     2.82868785     3.66772125     0.00015555    -0.01041297    -0.02686367
Ti      3.78428697    -2.83486095     8.48297505    -0.00947169    -0.00725720     0.01807023
Ti      5.70476433    -0.94318496     3.64565829     0.00001080     0.01483013    -0.01480082
Ti     -0.08483386     0.94825534     8.54618465    -0.00195044     0.00560192     0.00498666
Ti      1.90161384     2.90636163     3.68912433     0.00006993     0.00265132     0.00249346
Ti      0.01911164    -2.83476966     8.48295165     0.00948069    -0.00731608     0.01814351
Ti      1.90159192    -0.97114105     3.49541685     0.00002468    -0.02752907    -0.00922435
O       1.90161554     2.84657707     5.64397556    -0.00001286     0.00025197    -0.00458402
O       3.85481111     4.74953944     0.80566374    -0.00259887     0.01063537     0.00493858
O       3.76735635     0.95510574     0.75964561    -0.00800745    -0.00705717     0.01486844
O      -1.90153536     2.82428846     5.72757773    -0.00001260    -0.00174707    -0.00266598
O      -0.05177478     4.74951703     0.80569267     0.00251660     0.01059398     0.00504271
O      -1.90153331    -0.93671973     5.67095217    -0.00000617     0.01400892    -0.00564486
O       0.03578629     0.95507804     0.75969633     0.00792646    -0.00708725     0.01486844
O       3.65244686     2.82850279     8.86015928    -0.00363760    -0.00117474    -0.00691550
O       5.70469983     4.75066776     4.09599819    -0.00002880     0.00417187    -0.01814891
O       3.70194913    -0.92825831     8.91487066    -0.00708519     0.00200700    -0.00863120
O       5.70469245     0.95069167     4.10137875     0.00003522     0.00425209     0.00400090
O       0.15083890     2.82853584     8.86017673     0.00358772    -0.00126421    -0.00691370
O       1.90148614     4.83239892     4.07215110     0.00001543    -0.00681471     0.01195512
O       0.10136572    -0.92821828     8.91490049     0.00705202     0.00213504    -0.00868108
O       1.90152487     0.87533674     4.03136435     0.00003085     0.00759093     0.00512061
O       3.79091061     2.85512666     3.25656450    -0.01479079    -0.00220446    -0.00244718
O       1.90164445    -2.80811058     8.06083435    -0.00005219     0.00988487    -0.00191033
O       3.81742230    -0.95250660     3.18085883    -0.00500748    -0.00654783     0.01082923
O      -1.90155127     1.00446269     8.11296233    -0.00007276     0.01049550     0.02408405
O       0.01217152     2.85507665     3.25659343     0.01476868    -0.00214404    -0.00248600
O      -1.90153869    -2.87806190     8.07917996    -0.00001080     0.00458119     0.00917730
O      -0.01429915    -0.95251066     3.18090071     0.00506353    -0.00656506     0.01087397
O       3.78448466     4.86385484     6.46251135    -0.00145704    -0.00196484     0.00229651
O       5.70469679     6.70209047     1.62990078     0.00000257     0.00874715     0.00075462
O       3.66485950     0.77684684     6.54624114    -0.00572456     0.00848259     0.00661956
O       5.70467884     2.80494574     1.69240584     0.00003188    -0.00249808    -0.01498594
O       0.01869310     4.86384848     6.46257471     0.00149227    -0.00195918     0.00222349
O       1.90155828     6.62825680     1.52686308     0.00004834    -0.00257393     0.00398110
O       0.13834289     0.77681953     6.54632152     0.00557030     0.00849004     0.00671907
O       1.90153141     2.88548886     1.62810535    -0.00000463     0.00192190    -0.01038083
