# total energy = -19915.50679388 eV

CRYSTAL
PRIMVEC
        7.46343533     0.00000000     0.00000000
        0.00002444     3.40429369     0.00000000
        0.00000000     0.00000000    11.35876524
PRIMCOORD
24 1
Ti      2.70515070     2.01738130     4.21402089    -0.34667714     0.26169315     1.49262184
Ti      4.75830874     1.38691244     7.14474451     0.34667714    -0.26169315    -1.49262184
Ti      6.43674062     1.38691360     1.46531638    -0.34745233    -0.26153837    -1.49236782
Ti      1.02671882     2.01738025     9.89344913     0.34745233     0.26153837     1.49236782
Ti      2.70513864     0.31523451     1.46536195    -0.34667714     0.26169315    -1.49262184
Ti      4.75832080     3.08905928     9.89340357     0.34667714    -0.26169315     1.49262184
Ti      1.02670676     0.31523324     7.14469894     0.34745233     0.26153837    -1.49236782
Ti      6.43675268     3.08906055     4.21406646    -0.34745233    -0.26153837     1.49236782
O       2.36223292     1.19870967     5.79629100     4.08998798    -0.15186201     0.26741643
O       5.10122652     2.20558402     5.56247440    -4.08998798     0.15186201    -0.26741643
O       1.36954542     1.19872340     0.11694484    -4.08615858    -0.15292773     0.26831734
O       6.09391408     2.20557034    11.24182023     4.08615858     0.15292773    -0.26831734
O       5.10121452     0.50343718     0.11690800    -4.08998798     0.15186201     0.26741643
O       2.36224493     2.90085657    11.24185708     4.08998798    -0.15186201    -0.26741643
O       6.09390208     0.50342344     5.79632784     4.08615858     0.15292773     0.26831734
O       1.36955731     2.90087030     5.56243756    -4.08615858    -0.15292773    -0.26831734
O       0.27117862     2.07068438     3.06828589    -0.24557952    -0.07058169     0.42635128
O       7.19228082     1.33360930     8.29047951     0.24557952     0.07058169    -0.42635128
O       4.00290578     1.33357759     2.61113292    -0.24394019     0.07101981    -0.42741366
O       3.46055366     2.07071616     8.74763232     0.24394019    -0.07101981     0.42741366
O       0.27116662     0.36853754     2.61109667    -0.24557952    -0.07058169    -0.42635128
O       7.19229283     3.03575620     8.74766857     0.24557952     0.07058169     0.42635128
O       3.46054166     0.36856926     8.29051570     0.24394019    -0.07101981    -0.42741366
O       4.00291778     3.03572448     3.06824965    -0.24394019     0.07101981     0.42741366
