# total energy = -19960.81924400 eV

CRYSTAL
PRIMVEC
        5.93400000     0.00000000     0.00000000
        0.00000000     9.29699974     0.00000000
        0.00000000     0.00000000     4.64899994
PRIMCOORD
24 1
Ti      4.39503900     6.83627902     2.38138002     1.10287460     1.79528090    -0.11472164
Ti      4.44222901     2.40324599     2.37830502     0.32093344    -1.34375851    -0.42835032
Ti      1.50092602     7.00783400     2.28568699    -0.78416156     1.40218917    -0.39083354
Ti      1.45672702     2.38501499     2.32849600    -0.20040780    -1.07515707    -0.09610556
Ti      2.95281001     4.63836200     4.62663400    -0.50274110    -0.06134834     0.33159324
Ti      3.00972699     0.03032598     4.60179897     0.16890740    -0.08097358     0.46340784
Ti      5.92992200     4.70341302     0.02383901     0.49815014     0.13811843    -0.08304975
Ti      0.01375998     9.22711501     4.64627997    -0.01237215     0.17884446     0.33877716
O       4.42280001     5.51353402     0.87668202     0.20866181     0.31645252     0.15966325
O       4.46234198     0.90146599     0.83025101    -0.06452417     0.05648793    -0.05124056
O       1.53140499     5.65504099     0.86698501    -0.21031066    -1.32148324    -0.57320555
O       1.58921400     0.90554399     0.83833599    -1.17285414     0.38178531     0.31297202
O       4.38257698     8.25029900     3.73231699     0.67167241     0.32528812     0.17415374
O       4.54492602     3.68564499     3.77027699    -0.67999173     0.82475672     0.50612519
O       1.41365998     8.29391701     3.76531601     0.41706908     0.42678169    -0.06648387
O       1.49091801     3.77231099     3.72247699     0.09755952    -0.34424976     0.54305498
O       2.90195502     6.05907602     3.27814601     0.65169416    -0.38423326    -0.46895062
O       3.07172503     1.45292700     3.16507703    -1.16708921    -0.63600477     0.57456978
O       0.07467802     6.00912597     3.15996099    -1.16625617    -0.56435555     0.52312507
O       5.91509599     1.34337699     3.21354299     0.51518653     0.67683776    -0.52606024
O       2.95288298     7.87391099     1.30734002     0.27656750    -0.92675062     1.51003207
O       2.93339201     3.23110602     1.47805403     0.19579318     0.96120470    -1.00748920
O       5.88043102     7.95284899     1.57164998     0.10813190    -0.40776657    -1.04781312
O       5.92920502     3.34757502     1.50710400     0.72750625    -0.33794695    -0.58317089
