# total energy = -4893.98619243 eV

CRYSTAL
PRIMVEC
        5.87586399     0.00000000     0.00000000
       -0.00000727     1.95862133     0.00000000
       -2.93796939    -0.97943811     6.66569748
PRIMCOORD
6 1
Ti     -0.00025147     1.46901270     1.66642396    -0.05426778    -0.03570544   101.96747029
Ti      2.93813864    -0.48982954     4.99927254     0.05426778     0.03570544  -101.96747029
O       0.00006204     0.48963410     1.08578747     0.05304136     0.03701824   -98.44555902
O       2.93782497     0.48954901     5.57990908    -0.05304136    -0.03701824    98.44555902
O      -0.00002696    -0.48971636     4.41863605    -0.00109092    -0.00004011    -0.56234598
O       2.93791385     1.46889941     2.24706050     0.00109092     0.00004011     0.56234598
