# total energy = -4984.33837571 eV

CRYSTAL
PRIMVEC
        3.39329212     0.00000000     0.00000000
        0.00000000     3.19006778     0.00000000
        0.00000000    -0.00006283     4.53698523
PRIMCOORD
6 1
Ti      1.69664591     1.59500257     2.26849271     0.00000000     0.00000000     0.00000000
Ti      0.00000000     0.00000000     0.00000000     0.00000000     0.00000000     0.00000000
O       1.69664591     0.62168502     0.88419165     0.00000000    -2.58668989    -2.59543730
O       1.69664591     2.56832013     3.65279382     0.00000000     2.58668989     2.59543730
O       0.00000000     0.97329247     3.15268524    -0.00000000     2.58622452    -2.59421294
O       0.00000000     2.21671268     1.38430018    -0.00000000    -2.58622452     2.59421294
