# total energy = -4989.54096443 eV

CRYSTAL
PRIMVEC
        3.10419222     0.00000000     0.00000000
        0.48516714     4.83954548     0.00000000
       -0.00000323    -0.00006312     4.86991009
PRIMCOORD
6 1
Ti      1.79467812     2.41974118     2.43495504     0.00000000     0.00000000     0.00000000
Ti      0.00000000     0.00000000     0.00000000     0.00000000     0.00000000     0.00000000
O       1.64664741     0.94314388     0.94907374     0.00747137    -0.32588796    -0.36256605
O       1.94270889     3.89633848     3.92083629    -0.00747137     0.32588796     0.36256605
O       0.14802938     1.47657172     3.38402977    -0.00711630     0.32553983    -0.36227063
O       0.33713474     3.36291052     1.48588026     0.00711630    -0.32553983     0.36227063
