# total energy = -19517.84902411 eV

CRYSTAL
PRIMVEC
        7.60600008     0.00000000     0.00000000
        0.00000000     7.60600008     0.00000000
       -1.89786986    -1.89786986     4.85670466
PRIMCOORD
23 1
Ti      3.71948301     6.67554503     1.25979000     0.84967895    -0.81265196    -1.44829189
Ti      3.74218101     2.68860900     1.22922202     0.80949748     2.03803787     0.41511787
Ti     -0.09795500     6.60629901     1.15782998     0.59318277    -0.44352806     0.15458661
Ti      0.08695599     2.75029599     1.25835598    -0.96837757     0.99728141    -0.97553038
Ti      5.65566621     2.87005124     3.64661679    -0.06840320     0.64651519     0.38110834
Ti      5.64640624    -0.79912977     3.57104181     2.30934258    -0.33421422     0.91110211
Ti      1.97508222     2.80301025     3.75025483     0.48498583     0.27409333     0.48168710
Ti      1.91921423    -0.99515777     3.50923084    -1.62570090    -0.06288021     0.61462012
O       3.60317599     4.65236498     0.86556200     0.49561580     1.87031318    -0.41725652
O       3.90781698     0.92489801     0.81998603    -0.22310782    -0.91461192    -0.82742707
O       0.28855400     4.69690599     0.79764199    -0.66858837     0.91902163     0.55552895
O      -0.06108902     0.98131100     0.59883502     0.01342142    -0.22315718     1.53268350
O       5.75740223     4.73037222     4.17014983     0.21505923     0.10589349    -1.78956817
O       5.82860821     1.03010024     4.14369383    -0.09736797    -0.42425403    -1.73998828
O       2.01663121     4.73924922     3.82928480    -1.19650881     1.05281700     1.13623596
O       1.77653423     0.92056722     4.13378281     0.18053650    -0.43200051    -0.53161486
O       3.83543924     3.10637523     3.50890883    -0.07253985    -1.78239607    -1.57790382
O       3.83718124    -0.72489277     3.17633580    -1.60779445    -0.46320420    -0.38657887
O      -0.07447577    -0.92463776     3.22964580     1.37161411    -0.20274030    -0.54695226
O       5.69773300     6.79947098     1.52201802    -0.47378944    -0.89064846     0.21378371
O       5.78773202     2.85801002     1.58797599    -0.17573162    -0.09875997     1.51854063
O       1.90018401     6.82868601     1.50682000    -0.16312961    -0.18177989     1.30616537
O       1.91175997     2.68445401     1.69673600     0.01810469    -0.63714557     1.01995237
