# total energy = -19954.19768723 eV

CRYSTAL
PRIMVEC
        5.58981271     0.00000000     0.00000000
        0.00003064     5.94925110     0.00000000
        0.00000000     0.00000000    10.00453562
PRIMCOORD
24 1
Ti      2.02605641     3.52552070     3.71161143     0.02338342    -0.53903044     0.45098632
Ti      3.56378693     2.42373046     6.29292447    -0.02338342     0.53903044    -0.45098632
Ti      4.82086490     2.42373250     1.29061654     0.02497108     0.53895922    -0.45122029
Ti      0.76897844     3.52551888     8.71391947    -0.02497108    -0.53895922     0.45122029
Ti      2.02604120     0.55089526     1.29065666     0.02338342    -0.53903044    -0.45098632
Ti      3.56380214     5.39835607     8.71387935    -0.02338342     0.53903044     0.45098632
Ti      0.76896324     0.55089305     6.29288435    -0.02497108    -0.53895922    -0.45122029
Ti      4.82088011     5.39835828     3.71165155     0.02497108     0.53895922     0.45122029
O       1.76922180     2.09483250     5.10523805     0.92803772     0.83859055     0.04684989
O       3.82062154     3.85441871     4.89929785    -0.92803772    -0.83859055    -0.04684989
O       1.02573881     2.09485647     0.10300230    -0.92794336     0.83885820     0.04603896
O       4.56410459     3.85439475     9.90153331     0.92794336    -0.83885820    -0.04603896
O       3.82060634     0.87979310     0.10296984    -0.92803772    -0.83859055     0.04684989
O       1.76923701     5.06945806     9.90156577     0.92803772     0.83859055    -0.04684989
O       4.56408939     0.87976914     5.10527051     0.92794336    -0.83885820     0.04603896
O       1.02575390     5.06948207     4.89926539    -0.92794336     0.83885820    -0.04603896
O       0.20310944     3.61867178     2.70247472     0.32433964    -0.19057101     0.22313173
O       5.38673390     2.33057938     7.30206118    -0.32433964     0.19057101    -0.22313173
O       2.99802027     2.33052394     2.29982503     0.32443220     0.19066023    -0.22329551
O       2.59182307     3.61872722     7.70471070    -0.32443220    -0.19066023     0.22329551
O       0.20309423     0.64404617     2.29979308     0.32433964    -0.19057101    -0.22313173
O       5.38674911     5.30520499     7.70474264    -0.32433964     0.19057101     0.22313173
O       2.59180787     0.64410162     7.30209307    -0.32443220    -0.19066023    -0.22329551
O       2.99803547     5.30514954     2.70244278     0.32443220     0.19066023     0.22329551
