# total energy = -4984.61164098 eV

CRYSTAL
PRIMVEC
        4.17500596     0.00000000     0.00000000
        1.96470145     3.68383265     0.00000000
       -3.06989294    -1.84193986     5.51376119
PRIMCOORD
6 1
Ti      1.47342758     2.76301636     1.37843993     0.00065409    -0.00065409     0.00000000
Ti      1.59638675    -0.92112371     4.13532058    -0.00065409     0.00065409     0.00000000
O       0.49121863     0.92095347     0.89814653    -0.00055227    -0.00066772    -2.23222308
O       2.57859553     0.92093917     4.61561404     0.00055227     0.00066772     2.23222308
O      -0.49117895    -0.92092962     3.65502712    -0.00066772    -0.00055227    -2.23222308
O       3.56099302     2.76282216     1.85873339     0.00066772     0.00055227     2.23222308
