# total energy = -19959.71784533 eV

CRYSTAL
PRIMVEC
        7.60600008     0.00000000     0.00000000
        0.00000000     7.60600008     0.00000000
       -1.89786986    -1.89786986     4.85670466
PRIMCOORD
24 1
Ti      3.67202597     6.62163001     1.15565998     0.90523202     0.26424265     0.42988167
Ti      3.98782001     2.91807899     1.14626100    -1.47715305     0.34419654    -0.12461139
Ti     -0.14040401     6.57807201     1.26888698    -0.88695096    -0.45591281    -0.51805742
Ti     -0.00808800     2.78394600     1.27411700     1.32468221     0.80095575    -0.54996560
Ti      5.85226720     2.68133822     3.66728179    -2.58454045     2.20771506     1.37206097
Ti      5.61995521    -0.96672979     3.76103782     0.72154257    -2.73859072    -1.66539027
Ti      1.92255821     3.01248321     3.51212279     1.51785131    -1.75298033    -0.03426176
Ti      1.93466721    -0.99449577     3.60534181    -1.08034735     1.49155483     0.21419097
O       3.99586398     4.83853700     0.78525401    -0.68569521     0.17165437    -0.57763993
O       3.55131302     1.03947002     0.76945902     1.02917441    -0.35795811    -0.81998552
O       0.04847798     4.72703200     0.75426798    -0.50947919    -0.52056348    -0.27436792
O       7.22968198     0.93942202     0.84543501     0.83988330    -0.04487811     0.73389339
O       5.78753221     4.69829524     4.15204779    -0.80839113     0.41544569     0.14069570
O       5.83358624     0.83199824     4.14959479     0.22661609     1.33273799    -0.24598499
O       2.01461621     4.81573422     4.01881281    -0.10015145     0.08665932     0.18486933
O       1.79090023     1.13779321     4.08906681     0.63147731    -1.25537912    -1.29338210
O       3.94731223     2.75028424     3.04026380    -0.25558292    -0.09390495     1.13420658
O       3.81448123    -1.08520675     3.07511081    -2.31746521     0.73738906     2.20682109
O      -0.00624175     2.95977620     3.37993283     1.60562829    -0.47128801    -1.58665175
O      -0.11994279    -1.15608179     3.23065579     1.11820429     0.65534024     0.02151011
O       5.54151500     6.59388499     1.73646101     2.02234796     0.71246683    -0.94552148
O       5.84488999     3.09250502     1.51490498    -0.61676031    -0.63903816     0.71228634
O       1.80744099     6.60539798     1.62048600     0.19727619     0.41551511     0.56049144
O       1.95463302     3.25897101     1.61495297    -0.81739899    -1.30537990     0.92491228
