# total energy = -19518.21608816 eV

CRYSTAL
PRIMVEC
        5.93400000     0.00000000     0.00000000
        0.00000000     9.29699974     0.00000000
        0.00000000     0.00000000     4.64899994
PRIMCOORD
23 1
Ti      4.51523198     7.08267802     2.28436997     0.27279672     0.05239936    -0.23224758
Ti      4.45276599     2.29589403     2.35026799     1.26359071     0.45268170    -1.04867778
Ti      1.41285801     7.02468501     2.22710400    -0.13341768     0.04304568    -0.16178544
Ti      1.48630099     2.27735599     2.42688598    -0.61446174     0.21020576    -0.61078507
Ti      2.96916000     4.49339701     0.17485397     0.10699804     0.75922211     0.34646219
Ti      2.96715701     0.02995498     4.63945602     0.55719477    -0.43691878    -0.02815102
Ti      5.91596400     4.58076899     4.58927002    -0.25678902     0.18691618     0.64904335
Ti      0.04244600     0.04465801     4.63616898    -0.52640683     0.10555385    -0.41577453
O       4.43012001     5.59264998     0.93308401    -0.63449836    -0.36192790    -0.70283574
O       4.46652502     0.90703198     0.87871602     0.04758034    -0.07459184     0.17395988
O       1.38933698     5.51964802     0.91719202     1.27125003     0.55376723    -0.06716624
O       1.47412399     0.91933800     0.88177303     0.19700828     0.04418700     0.24583098
O       4.42505700     8.46262301     3.61182201     0.13371284    -0.38851929     0.88107341
O       4.42021302     3.68413000     3.72860598    -0.51357933     1.11909955     0.16849551
O       1.57497601     8.48006601     3.60633301    -0.51240357    -0.54913847     0.59588089
O       1.47804201     3.59220900     3.80109500     0.25262949     1.04555337    -0.42876298
O       3.07440102     1.46694702     3.22905403    -1.59718916    -0.70803836     0.47958265
O       5.92877602     6.12023298     3.21333101     0.22785073    -0.27895117     0.19429602
O       5.90821298     1.45566898     3.26966399     0.22294121    -0.28551546    -0.35157226
O       2.99439699     7.84671101     1.43333400    -0.57501869    -0.13640659    -0.39814421
O       2.91475999     3.14728699     1.31424599     0.10944187    -0.36299799     1.18802211
O       0.01283101     7.98675597     1.44410101     0.06726060    -0.35171444    -0.66506750
O       5.85688798     3.31429898     1.42402598     0.63350848    -0.63791150     0.18832335
