# total energy = -19937.32720506 eV

CRYSTAL
PRIMVEC
        6.98726617     0.00000000     0.00000000
        0.00002637     4.46193833     0.00000000
        0.00000000     0.00000000    10.67150488
PRIMCOORD
24 1
Ti      2.53256334     2.64414050     3.95905222     0.38389798     0.39006143     0.81734089
Ti      4.45472873     1.81779777     6.71245278    -0.38389798    -0.39006143    -0.81734089
Ti      6.02607621     1.81779927     1.37665765     0.38418595    -0.38990280    -0.81736171
Ti      0.96121592     2.64413917     9.29484741    -0.38418595     0.38990280     0.81736171
Ti      2.53255039     0.41317140     1.37670045     0.38389798     0.39006143    -0.81734089
Ti      4.45474169     4.04876699     9.29480466    -0.38389798    -0.39006143     0.81734089
Ti      0.96120291     0.41316978     6.71240998    -0.38418595     0.38990280    -0.81736171
Ti      6.02608916     4.04876860     3.95909497     0.38418595    -0.38990280     0.81736171
O       2.21152301     1.57112429     5.44558728     1.33588631     0.49091171    -0.49831212
O       4.77576912     2.89081392     5.22591772    -1.33588631    -0.49091171     0.49831212
O       1.28216925     1.57114231     0.10986913    -1.33583463     0.49086491    -0.49866821
O       5.70512294     2.89079596    10.56163553     1.33583463    -0.49086491     0.49866821
O       4.77575616     0.65984470     0.10983450    -1.33588631    -0.49091171    -0.49831212
O       2.21153597     3.80209351    10.56167016     1.33588631     0.49091171     0.49831212
O       5.70510993     0.65982674     5.44562186     1.33583463    -0.49086491    -0.49866821
O       1.28218209     3.80211153     5.22588308    -1.33583463     0.49086491     0.49866821
O       0.25387948     2.71400383     2.88263970    -1.40381616     0.55990189     0.93359002
O       6.73341265     1.74793438     7.78886524     1.40381616    -0.55990189    -0.93359002
O       3.74752061     1.74789290     2.45314669    -1.40319395    -0.55980239    -0.93405230
O       3.23977147     2.71404537     8.21835808     1.40319395     0.55980239     0.93405230
O       0.25386647     0.48303461     2.45311263    -1.40381616     0.55990189    -0.93359002
O       6.73342560     3.97890360     8.21839214     1.40381616    -0.55990189     0.93359002
O       3.23975851     0.48307615     7.78889925     1.40319395     0.55980239    -0.93405230
O       3.74753356     3.97886207     2.88260564    -1.40319395    -0.55980239     0.93405230
