# total energy = -19940.60300054 eV

CRYSTAL
PRIMVEC
        5.04073621     0.00000000     0.00000000
        2.06343426     4.95217555     0.00000000
        0.00000000     0.00000000     9.21521191
PRIMCOORD
24 1
Ti      3.04981371     2.93465474     3.41877789     3.45440899    -3.65318234     1.24691222
Ti      4.05435685     2.01752095     5.79643412    -3.45440899     3.65318234    -1.24691222
Ti      5.18795516     2.01752263     1.18879127    -7.13018259     1.17247644     1.99038631
Ti      1.91621543     2.93465325     8.02642079     7.13018259    -1.17247644    -1.99038631
Ti      2.01809667     0.45856694     1.18882822     3.45490727    -3.65219786    -1.24676927
Ti      5.08607391     4.49360889     8.02638385    -3.45490727     3.65219786     1.24676927
Ti      0.88449828     0.45856512     5.79639713     7.13049061    -1.17223990     1.99013460
Ti      6.21967230     4.49361071     3.41881483    -7.13049061     1.17223990    -1.99013460
O       2.32199511     1.74374525     4.70245212    -0.64386592     0.54565129    -1.19197467
O       4.78217540     3.20843045     4.51275990     0.64386592    -0.54565129     1.19197467
O       1.65155138     1.74376526     0.09487577     1.49695544    -0.56818958    -0.77089158
O       5.45261925     3.20841052     9.12033593    -1.49695544     0.56818958     0.77089158
O       3.75045834     0.73234256     0.09484586     0.64350314    -0.54625678    -1.19208240
O       3.35371221     4.21983313     9.12036585    -0.64350314     0.54625678     1.19208240
O       4.42090213     0.73232259     4.70248198    -1.49803993     0.56870612    -0.77120088
O       2.68326833     4.21985317     4.51272998     1.49803993    -0.56870612     0.77120088
O       1.43823932     3.01219404     2.48925865     0.10141669    -1.74816825    -1.65645954
O       5.66593119     1.93998166     6.72595336    -0.10141669     1.74816825     1.65645954
O       3.51183708     1.93993557     2.11837666     2.13065290    -1.84769055    -2.78036371
O       3.59233343     3.01224012     7.09683520    -2.13065290     1.84769055     2.78036371
O       0.40652225     0.53610610     2.11834720     0.10181829    -1.74858323     1.65536168
O       6.69764830     4.41606959     7.09686461    -0.10181829     1.74858323    -1.65536168
O       2.56061637     0.53615223     6.72598272    -2.13131624     1.84757613    -2.77997444
O       4.54355413     4.41602347     2.48922924     2.13131624    -1.84757613     2.77997444
