# total energy = -19073.76685351 eV

CRYSTAL
PRIMVEC
        5.17600016     0.00000000     0.00000000
        0.00000000     5.50899976     0.00000000
        0.00000000     0.00000000     9.26300011
PRIMCOORD
22 1
Ti      1.77773800     3.40475802     3.45604302     1.20883211     1.49192199    -1.50504824
Ti      3.75022398     2.21639398     5.82878200    -2.70216383     0.77692724    -0.14555997
Ti      4.25912898     2.35826201     1.30951202     0.57897357    -0.31200143    -1.26321071
Ti      0.74911501     3.14607602     8.00449601     0.28353468     1.68817951    -0.50486689
Ti      1.77917800     0.57659000     1.13866302     0.22756868    -0.40107296    -0.20000927
Ti      3.29225298     5.02370300     8.00018199    -0.19085897    -0.12843256     0.33522364
Ti      0.80541100     0.06967597     6.11988499     0.78865508     0.59888085    -0.80553463
Ti      4.43604299     5.02860302     3.42489200    -0.56852126     0.48060004    -1.10472476
O       3.46030602     3.58287300     4.34052898     0.60763752    -2.01257545     1.68568862
O       0.87759200     2.06731798     0.11610699    -0.15549215    -2.10726125     1.65401647
O       4.20180500     3.66541798     9.03729701     1.08151489    -0.28635929    -0.10132001
O       3.38318701     0.90876202     0.13597299     0.91069690     0.10079191    -0.30275882
O       1.85315201     4.58077497     8.99841201    -2.36421097     0.36354949     0.54167404
O       4.31455400     0.58854501     4.91166401    -0.44498022     1.51008195     1.21536503
O       1.12329900     4.98489298     4.33448900    -0.31056701    -1.19160417     0.90578378
O       0.10044102     3.58563498     2.52118902     0.19762560    -0.84387314    -0.87512388
O       5.10736000     1.71495599     6.98566602     0.21080328    -0.87860927    -0.30684868
O       2.54363100     2.08205900     2.06294898     0.67572576     0.68994730     1.50320682
O       2.18808400     3.56804899     6.65495400    -0.17731645     0.05350391     0.92753918
O       0.07139501     0.96135499     2.35163200    -0.30751922    -0.56707578    -1.08621384
O       2.43466700     0.79623697     6.79530498     0.25953291     0.41275606    -0.83392708
O       2.68389901     4.75891001     2.31641002     0.19052936     0.56172454     0.26664921
