# total energy = -19957.25293054 eV

CRYSTAL
PRIMVEC
        5.89259401     0.00000000     0.00000000
        0.00002740     5.13122908     0.00000000
        0.00000000     0.00000000     9.68452510
PRIMCOORD
24 1
Ti      2.13579814     3.04076149     3.59288986     0.05657020     0.19846173    -0.47973872
Ti      3.75682333     2.09046736     6.09163562    -0.05657020    -0.19846173     0.47973872
Ti      5.08199304     2.09046902     1.24933419     0.05816943    -0.19877309     0.48031644
Ti      0.81062842     3.04076000     8.43519141    -0.05816943     0.19877309    -0.48031644
Ti      2.13578466     0.47514707     1.24937302     0.05686691     0.19164753     0.48011204
Ti      3.75683681     4.65608196     8.43515258    -0.05686691    -0.19164753    -0.48011204
Ti      0.81061494     0.47514519     6.09159679    -0.05843451     0.19163570     0.48074890
Ti      5.08200653     4.65608378     3.59292869     0.05843451    -0.19163570    -0.48074890
O       1.86505287     1.80679291     4.94193918     0.73826349     0.20032423     0.17702772
O       4.02756859     3.32443595     4.74258631    -0.73826349    -0.20032423    -0.17702772
O       1.08129786     1.80681365     0.09970763    -0.73773462     0.20036923     0.17616691
O       4.81132365     3.32441527     9.58481758     0.73773462    -0.20036923    -0.17616691
O       4.02755511     0.75882135     0.09967619    -0.73785649    -0.20018411     0.17673255
O       1.86506635     4.37240750     9.58484902     0.73785649     0.20018411    -0.17673255
O       4.81131012     0.75880067     4.94197062     0.73784723    -0.20069190     0.17640860
O       1.08131124     4.37242824     4.74255487    -0.73784723     0.20069190    -0.17640860
O       0.21410813     3.12110442     2.61603193    -0.06451852    -0.13075453     0.26440566
O       5.67851333     2.01012444     7.06849355     0.06451852     0.13075453    -0.26440566
O       3.16041103     2.01007675     2.22626162    -0.06351887     0.13073550    -0.26416449
O       2.73221043     3.12115211     7.45826370     0.06351887    -0.13073550     0.26416449
O       0.21409460     0.55548983     2.22623067    -0.06378755    -0.13094839    -0.26427248
O       5.67852687     4.57573903     7.45829465     0.06378755     0.13094839     0.26427248
O       2.73219690     0.55553752     7.06852444     0.06419841    -0.13142816    -0.26536263
O       3.16042457     4.57569134     2.61600099    -0.06419841     0.13142816     0.26536263
