# total energy = -19073.53402165 eV

CRYSTAL
PRIMVEC
        7.60600008     0.00000000     0.00000000
        0.00000000     7.60600008     0.00000000
       -1.89786986    -1.89786986     4.85670466
PRIMCOORD
22 1
Ti      3.53070199     6.70376399     1.32300800     0.05655478    -0.48465364    -0.00291229
Ti      3.95768802     2.83074199     1.05903799     1.12089495     1.19945992     1.32268086
Ti     -0.17020198     6.57258100     1.08707200     1.52201470     0.40215539     0.32100389
Ti      0.28630998     2.75043501     1.09290898    -1.88810136     0.74871606    -0.80152371
Ti      6.00775223     2.94536623     3.50622183    -2.00003052    -0.02938386    -0.13287132
Ti      5.86818221    -1.06389377     3.65425879     0.19207305     0.90921106     1.12403401
Ti      2.06327824     2.84039223     3.64911583     1.28234640     0.37760238    -0.26691840
Ti      1.20583324    -1.03801478     3.93815683     0.27750184     0.67023491    -1.41944796
O       3.67632199     4.80549501     0.79021298     0.12664822     0.15096264    -0.85345024
O       3.65191999     1.03518299     0.88311602    -0.12680326    -1.58611361     2.40719957
O       0.54863002     4.80992502     0.50832200    -0.96803921    -0.82999997     0.60644324
O      -0.15365101     0.91335501     0.92611602     0.75375337    -0.35071583    -0.17510402
O       5.45063024     4.76299621     3.99976783    -0.18898258    -0.58802797     0.03612736
O       5.51921225     0.71290722     3.96673780     1.14697726     2.14596871     0.47083164
O       2.02672421     4.95866124     4.37467779     0.04171539    -1.82534097    -1.84141603
O       2.06157524     0.70518324     3.98025479    -0.38808503     2.81982193     0.17410797
O       3.90297321     2.93890021     3.07257081    -1.27829614    -0.31799416     1.53691657
O       0.12180925     3.44571221     3.04288079     1.12323106    -1.41294667     0.02736349
O       5.73637998     6.53105000     1.83807802    -1.37783284    -0.20277321    -1.09486201
O       5.81986801     2.92792698     1.56296099     0.33211080    -0.11261205    -0.55125552
O       1.49969701    -0.79566800     2.10403002     1.22203679    -1.12279577    -1.38498925
O       2.04496902     2.87658901     1.54041000    -0.98168740    -0.56077478     0.49804164
