# total energy = -4990.43986556 eV

CRYSTAL
PRIMVEC
        2.95197861     0.00000000     0.00000000
        0.00000000     4.62530792     0.00000000
        0.00000000    -0.00006002     4.62530792
PRIMCOORD
6 1
Ti      1.47598925     2.31262390     2.31265391     0.00000000     0.00000000     0.00000000
Ti      0.00000000     0.00000000     0.00000000     0.00000000     0.00000000     0.00000000
O       1.47598925     0.90139268     0.90140438    -0.00000000     0.05086801     0.05086801
O       1.47598925     3.72385511     3.72390344     0.00000000    -0.05086801    -0.05086801
O       0.00000000     1.41120688     3.21405922     0.00000000    -0.05114775     0.05114775
O       0.00000000     3.21404091     1.41124859     0.00000000     0.05114775    -0.05114775
