# total energy = -19960.65929460 eV

CRYSTAL
PRIMVEC
        7.60600008     0.00000000     0.00000000
        0.00000000     7.60600008     0.00000000
       -1.89786986    -1.89786986     4.85670466
PRIMCOORD
24 1
Ti      3.77515600     6.67733597     1.07601399     0.66453863     1.64481526     1.85124227
Ti      3.83430701     2.97900100     1.10781903     0.11876341    -1.76151691     1.32477322
Ti     -0.03666399     6.70141798     1.23803399    -1.07993829     0.41369785     0.83882066
Ti     -0.01655002     2.93231100     1.31883602    -0.14754538    -1.10015745    -0.66231693
Ti      5.68720724     2.88038422     3.77123184    -0.65358289    -2.30486191    -1.36491767
Ti      5.69138620    -1.02433475     3.70226279    -0.82564709     2.08620416    -1.78169750
Ti      1.97473625     2.83662221     3.66575279     0.65104136     0.25082869    -1.12908237
Ti      1.88621521    -0.97778578     3.54780579     1.04134705    -0.40652319     0.69530651
O       3.80998799     4.84879002     0.76080702    -0.22228044    -2.74650252     0.57780963
O       3.86494199     0.87906501     0.61694098    -0.54069471     1.30999374     0.73008635
O      -0.16434197     4.78361602     0.84327199     0.60118688    -0.50162370    -0.15017793
O      -0.23723900     1.00384998     0.71585802     0.60071945    -0.11098479     1.43002086
O       5.72695723     4.76561521     4.16671082    -0.14699388    -0.87398565    -0.77982308
O       5.78960923     0.94911623     4.00789583     0.41253957     0.39587239     0.99956352
O       2.09780822     4.71621921     4.01529982    -0.41389120    -0.18011150    -1.11316004
O       1.94663524     0.93567624     4.09400181    -0.55119870    -0.18338374     0.07089742
O       3.83052324     2.52144921     3.28340281     1.08702940     1.44247271    -0.32183462
O       3.71482324    -0.98775876     3.08496282     0.62483024     0.09911066     0.81916457
O       0.08252720     2.73717721     3.26736381    -1.35445302     0.72110266    -0.31480547
O      -0.05256979    -1.20384178     3.19586482     0.45974941     0.68447831     0.09683267
O       5.62559301     6.74251601     1.66712800     0.97165161    -0.39041085    -0.13050436
O       5.70634700     3.00571202     1.63220802    -0.37476336    -0.12096042     0.55266860
O       1.86334200     6.53063201     1.55825698    -0.85476279     0.78853295    -0.43404120
O       1.95977101     2.71110401     1.75589600    -0.06764524     0.84391376    -1.80482510
