# total energy = -19959.75225006 eV

CRYSTAL
PRIMVEC
        7.60600008     0.00000000     0.00000000
        0.00000000     7.60600008     0.00000000
       -1.89786986    -1.89786986     4.85670466
PRIMCOORD
24 1
Ti      3.85292199     6.64997100     1.05946403    -0.07404806    -0.70012451     1.54956306
Ti      3.80064700     2.62927501     1.20918298     0.17741467     0.54169873     1.02606800
Ti     -0.04164397     6.71107600     1.18989902    -0.29047846     1.14556598     0.57571238
Ti     -0.04405898     2.91166801     1.33073500    -0.35468536    -1.00643171    -1.20158751
Ti      5.60870522     2.95233624     3.67941879     0.29247801    -1.20729150    -0.03550618
Ti      5.68219424    -0.86014375     3.68759183    -0.32318907     1.36842774    -0.50764882
Ti      1.88881924     2.72195823     3.75190083     0.30001365     0.47617517    -0.65312627
Ti      1.98136821    -0.97063480     3.61128479     0.77298188    -0.25569553    -0.96185339
O       3.91347399     4.72100800     0.84804798    -0.47487187    -0.47791915    -1.00639597
O       4.22294003     0.84704598     0.71210599    -1.33186150     1.44953554    -0.43644724
O      -0.24776597     4.85871601     0.81063001     1.10687421    -0.26591747     0.14215969
O      -0.27411699     1.08662098     0.76537001     1.21644052    -1.08511392    -0.16584007
O       5.53335022     4.94325022     4.01585683     0.62119341    -1.89254680     0.49041008
O       5.44479823     1.11364220     4.04577079     1.35500632    -0.44919554     0.79154114
O       2.12330821     4.79658822     3.93785383    -0.96073316    -1.44668984     0.08078563
O       2.08456921     0.92011123     4.14743183    -0.85308617     0.07184488    -0.18055399
O       3.84125924     2.87092523     3.19071180    -1.86548413     0.31380660    -0.74439275
O       3.79057522    -0.81805278     3.17584980    -0.51888609    -0.13580341    -0.93537513
O      -0.03835577     2.78623723     3.33566282     1.11917334     0.82844188    -0.21262003
O       0.03691022    -0.83630479     3.18714181     0.98914463    -0.05439428     0.04595180
O       5.72356198     6.72964202     1.72299202     0.21224799    -0.40063330    -0.53131481
O       5.74748201     2.65794699     1.57670701    -0.95823405     1.53617249     1.39808106
O       2.00555902     6.74736200     1.30355899    -1.08566620    -0.13384165     1.02885431
O       1.85714798     2.29043001     1.61576097     0.92825575     1.77992910     0.44353474
