# total energy = -19075.25708875 eV

CRYSTAL
PRIMVEC
        5.17600016     0.00000000     0.00000000
        0.00000000     5.50899976     0.00000000
        0.00000000     0.00000000     9.26300011
PRIMCOORD
22 1
Ti      1.89619798     3.40127900     3.25108098    -0.49636219     0.83308453     1.42587778
Ti      3.58637398     2.25070398     5.84123798    -0.82588004     0.01164582    -0.40708651
Ti      4.40117401     2.24845302     1.30243301    -0.50334300    -0.02145741    -2.40998228
Ti      0.83973503     3.23234001     8.13133201    -0.82005391     0.86590467     0.45438377
Ti      1.78083099     0.49494499     1.32249698     0.59413588     0.63212163    -2.25618500
Ti      3.20337602     4.97720298     8.02339398     0.87697379     0.22351122     1.47662803
Ti      0.65158500     0.34565101     6.04918803    -0.17861306     0.19581323    -1.90606361
Ti      4.44843298     4.96241200     3.35913601    -0.29236205     0.17785536     2.30547769
O       3.45576801     3.53477099     4.40694702    -0.13067637    -0.44154368     1.18235205
O       0.81299200     1.98634798     0.19106998     0.53286287    -1.64450210     0.25646918
O       4.29173201     3.61473899     9.04841302     0.00614828     0.22024181    -0.06360449
O       3.37125099     0.82014399     0.20989498     0.62411984     0.72978296    -0.33017296
O       1.72120002     4.64154400     9.16150798    -1.48189931    -0.18018066     0.09761043
O       4.15320002     0.93475198     4.59701299     0.16137226    -0.69592589     0.84972934
O       0.96727802     4.75938299     4.46151001    -0.69676767    -0.09139967     0.73129760
O       0.12973198     3.51237902     2.39254402     0.25390579    -0.56812582     0.08535526
O       0.12094399     2.24896997     6.50761502     0.32593835    -0.53363112     0.57508708
O       2.59414298     2.06365702     2.22521002     0.64141823    -0.82238513    -0.02107071
O       2.51267397     3.44003800     7.15090400    -0.13632920    -1.10685209    -1.21235555
O       0.07042000     0.70153700     2.22397402     0.49455290     0.57949113    -0.80378551
O       2.37057798     0.61027599     6.68028100     0.37794999     0.77899312    -0.10170079
O       2.71927398     4.71119600     2.31214802     0.67290885     0.85755835     0.07173869
