# total energy = -19957.66220136 eV

CRYSTAL
PRIMVEC
        5.93400000     0.00000000     0.00000000
        0.00000000     9.29699974     0.00000000
        0.00000000     0.00000000     4.64899994
PRIMCOORD
24 1
Ti      4.40588703     7.02320802     2.28422699     4.23861657     0.72655160    -0.65460311
Ti      4.50655300     2.60625902     2.44816499    -2.28568173    -4.38617121    -1.56949503
Ti      1.55253001     6.73579498     2.24153101    -3.04345271     2.14938853     0.23824134
Ti      1.50382702     2.43577002     2.46659100     1.63861582    -3.55448073    -1.61438805
Ti      2.95206498     4.73723401     4.62196603     0.48413145     0.61060072     2.15142588
Ti      2.97646598     9.04700599     0.02367698     0.21548835     1.94747844     0.45479721
Ti      0.00740499     4.56042599     4.59430799    -0.30202966     2.05956547     0.68433381
Ti      5.92057298     0.05974999     4.53874798     0.40498721    -0.19152077     3.02177290
O       4.53300101     5.71667098     0.82231202    -0.09839076    -2.46188618    -1.53847028
O       4.40551300     0.56266999     0.98949298    -0.81886555     1.72022498    -0.39133079
O       1.47223599     5.74113998     0.66793298    -0.24680028    -1.34754163     0.01823478
O       1.28907499     0.81496599     1.13978202     1.00485022     0.73272276    -0.91313817
O       4.48343102     8.28117898     3.71727603    -1.20692872     0.16876779    -0.25813525
O       4.35223898     3.72658399     3.75878300     1.22639661     2.03661502     1.74837317
O       1.36215098     8.23802002     3.99031699     1.74790600    -0.15124443    -2.15447263
O       1.58024699     3.84600898     3.72075198    -1.55677475     0.00170464     0.60732770
O       3.04304198     5.95234801     3.21301398    -0.33445874     0.69867929    -1.15742931
O       3.00641900     1.66174198     3.28248701    -0.48818274    -1.15716732     0.02796101
O       0.10401497     5.93290498     2.94646702    -0.80753161    -1.20569896     1.80857840
O       5.91647101     1.55793899     3.39442298    -0.67632585     1.39039166    -1.08128375
O       3.01544898     7.79860298     1.41189898    -1.20398069    -0.15153651     0.18761681
O       2.76854499     3.35618801     1.42914900     1.55213853     0.48204628    -0.51066396
O       5.92531800     7.83619102     1.32392999    -0.08559720    -1.05493276     2.09547634
O       5.86856702     3.30276302     1.43468700     0.64187023     0.93744282    -1.20072928
