# total energy = -19071.99799467 eV

CRYSTAL
PRIMVEC
        5.17600016     0.00000000     0.00000000
        0.00000000     5.50899976     0.00000000
        0.00000000     0.00000000     9.26300011
PRIMCOORD
22 1
Ti      1.68279900     3.56562399     3.25442897     1.20827161     0.16140955     1.27611328
Ti      3.76049901     2.30501900     6.01163099     1.03953030    -1.65128673     0.25624035
Ti      4.38285998     2.46199800     1.61554798    -0.13801250    -1.40543801    -1.38536592
Ti      1.54657999     2.67826698     7.95202300    -1.65641480     1.71618963    -0.67820070
Ti      1.67154901     0.74098198     1.29424399    -0.70195153    -0.15766627     1.67329770
Ti      3.05705300     5.50261201     7.85160500     1.78597608    -2.06093947     1.35964588
Ti      0.48535598     5.27860699     6.29446099     1.27137910    -2.06157144    -0.58683960
Ti      4.33923699     5.14519998     3.52831800     0.48947677    -0.63606442     0.14354243
O       3.37663600     3.01508798     4.41469000    -0.96993360     1.27276107    -0.83259088
O       0.70402001     1.82794502     0.15757898    -1.95958886     1.17826580     0.13033827
O       0.18314502     3.14783400     6.46123200     1.93859065     0.65946069    -0.44285674
O       3.04884001     1.00296102     0.14206298     1.86405948    -0.68459761    -0.71241284
O       1.40703600     4.70778101     7.98949198    -1.77115084    -1.49597919     1.12964185
O       4.10082401     0.34009100     5.17651600    -1.74808520     0.85278690     0.26284706
O       0.93933502     4.99577498     4.52003098     0.94906189    -1.69808340    -0.72528405
O       0.16350598     3.96342600     2.10601999    -0.30513427     0.32494282    -0.14259215
O       4.65739698     0.80789602     7.30968702    -0.76352459     1.39816745     1.47295469
O       2.50034600     2.31587502     1.94193303     0.06845822     0.98708287     1.23541424
O       3.29347702     3.30570498     7.53426900    -0.67221903     1.29099868     1.15711075
O       5.09427201     1.14301900     2.69627699     0.24550085     0.23142765    -0.66362640
O       2.08388202     1.17796099     6.91954702    -0.92263017     1.19529499    -3.04202934
O       2.56075100     5.06149102     2.63805099     0.74834042     0.58283845    -0.88534787
