# total energy = -19933.86658447 eV

CRYSTAL
PRIMVEC
        6.35841214     0.00000000     0.00000000
        0.00003164     6.12277093     0.00000000
        0.00000000     0.00000000    10.86541033
PRIMCOORD
24 1
Ti      2.30463736     3.62834832     4.03098983     0.17933863    -0.79420172     0.65272569
Ti      4.05380642     2.49442248     6.83442087    -0.17933863     0.79420172    -0.65272569
Ti      5.48373262     2.49442458     1.40167212     0.17963225     0.79439584    -0.65294706
Ti      0.87471122     3.62834653     9.46373877    -0.17963225    -0.79439584     0.65294706
Ti      2.30462160     0.56696299     1.40171570     0.17933863    -0.79420172    -0.65272569
Ti      4.05382224     5.55580800     9.46369518    -0.17933863     0.79420172     0.65272569
Ti      0.87469540     0.56696075     6.83437734    -0.17963225    -0.79439584    -0.65294706
Ti      5.48374838     5.55581030     4.03103342     0.17963225     0.79439584     0.65294706
O       2.01248875     2.15593165     5.54453586     1.13931023     1.26296542    -0.36036750
O       4.34595509     3.96683915     5.32087484    -1.13931023    -1.26296542     0.36036750
O       1.16677687     2.15595641     0.11186549    -1.13892456     1.26313203    -0.36106272
O       5.19166704     3.96681445    10.75354496     1.13892456    -1.26313203     0.36106272
O       4.34593927     0.90545362     0.11183027    -1.13931023    -1.26296542    -0.36036750
O       2.01250457     5.21731718    10.75358019     1.13931023     1.26296542     0.36036750
O       5.19165122     0.90542893     5.54457116     1.13892456    -1.26313203    -0.36106272
O       1.16679250     5.21734194     5.32083961    -1.13892456     1.26313203     0.36106272
O       0.23103517     3.72421638     2.93501847    -0.13147367    -0.12903189     0.14635059
O       6.12740867     2.39855449     7.93039223     0.13147367     0.12903189    -0.14635059
O       3.41024687     2.39849750     2.49772143    -0.13160454     0.12920698    -0.14657145
O       2.94819691     3.72427337     8.36768915     0.13160454    -0.12920698     0.14657145
O       0.23101935     0.66283085     2.49768669    -0.13147367    -0.12903189    -0.14635059
O       6.12742443     5.45994001     8.36772382     0.13147367     0.12903189     0.14635059
O       2.94818115     0.66288784     7.93042690     0.13160454    -0.12920698    -0.14657145
O       3.41026270     5.45988296     2.93498380    -0.13160454     0.12920698     0.14657145
