# total energy = -19515.53902706 eV

CRYSTAL
PRIMVEC
        5.93400000     0.00000000     0.00000000
        0.00000000     9.29699974     0.00000000
        0.00000000     0.00000000     4.64899994
PRIMCOORD
23 1
Ti      4.67728399     7.38258701     2.16488699    -5.42042561    -3.51380150     1.23967996
Ti      4.56469000     2.30578498     2.30787201    -0.73575358    -1.26487935    -1.10575706
Ti      1.19500902     7.03816998     2.17179000     1.74839888    -0.34427470     0.22768001
Ti      1.53287600     2.26331798     2.40657002     0.68469968    -1.09735186     0.87468808
Ti      3.00741703     4.40891101     0.25727301    -0.55722125     0.43636471     1.56159788
Ti      2.90307698     9.18009698     0.06694299     0.46129079     1.18130998     0.16741719
Ti      5.87716499     4.57911600     0.05015500     0.41665411     1.09433956     0.15929353
Ti      0.04754398     0.05111799     4.44656901    -0.28966059     1.62318045    -0.53399004
O       4.52048798     5.51008002     1.07365899    -0.93105259    -0.45417397    -1.40286357
O       4.47276302     0.98108600     0.74133399    -0.35179415    -0.03224010     1.35160938
O       1.39479502     5.75127298     0.82671102     0.47763221    -1.31967395     0.01391687
O       1.43429900     0.91220400     0.76558401     0.97252013    -0.28587670     0.76561876
O       4.45575002     8.50204603     3.57431800    -0.21936840     0.19055250     1.24154735
O       4.36235997     3.47104398     4.15065097     0.36177595     0.58942485    -2.08489470
O       1.56782598     8.26409999     3.71855399    -0.71772191    -0.34068646    -0.10554948
O       1.57702599     3.80868801     3.84255498     0.05667536     0.15758914    -0.70000726
O       2.87425301     1.21577600     3.16313299     0.96047811     0.19298322     0.16955917
O       5.65051298     6.11125602     3.15128698     1.28748039    -0.36984047     0.78723763
O       0.00931299     1.64697100     3.31165198    -0.21581797    -1.67260119     0.62063728
O       2.90272200     7.68061900     1.59104300     0.60209679     1.07810124    -1.28582074
O       2.94484398     3.14312702     1.65195897     1.07727540     2.36412818    -1.35901904
O       5.86429402     8.18462699     1.23605201     2.77529606    -0.23393654    -0.15427345
O       0.25422400     3.06525102     1.36154798    -2.44345857     2.02136400    -0.44830800
