# total energy = -39033.92705981 eV

CRYSTAL
PRIMVEC
        7.60600008     0.00000000     0.00000000
        0.00000000     7.60600008     0.00000000
       -3.79573973    -3.79573973     9.71340985
PRIMCOORD
46 1
Ti      1.69256147     4.73813445     6.01018660     0.94979131    -1.04993839     1.77556414
Ti      3.85442702     6.90579201     1.29979199    -0.49556103    -0.07397606     0.39578060
Ti      1.99602843     0.61173843     6.04989061     1.00694902     2.21394536     0.31542022
Ti      4.09485802     2.75358202     1.19032099    -0.62702262     2.00738054     2.60386461
Ti     -2.00301257     4.53254444     6.12265963    -2.22218189     2.23697448    -1.48683043
Ti     -0.07670202     6.71324298     1.18283398     0.83193164    -0.20906625    -0.00798302
Ti     -1.93341153     0.93490946     6.01748364    -1.04562151    -1.10038397     0.09189075
Ti      0.17912798     2.82531401     1.12564500    -0.69540756     0.43821179     0.05750146
Ti      3.75412343     1.11775946     8.50602861     0.79047413    -1.58895160     0.30663168
Ti      5.85172199     2.84380500     3.63233800    -1.77436394     0.11786995    -0.69826251
Ti      3.66899543    -2.80156755     8.41553761     0.00812649     1.21701748    -0.17316618
Ti      5.83995102    -1.03405701     3.73821499    -2.62416682     0.13476982     0.69229549
Ti      0.08203443     0.90698245     8.30397763    -1.29765913     1.82010774     2.33328830
Ti      1.91379900     2.82057401     3.51234801     1.53249838    -1.43769020    -0.28959683
Ti     -0.15470756    -2.76138654     8.43500064     0.08012846    -1.12373371     1.86439527
Ti      1.74723199    -1.03191299     3.54862501     5.32831194    -0.19586568     1.24663197
O       1.90216647    -1.08955955     5.76012860    -0.55127223    -1.12868025    -1.13240398
O       3.72442701     1.10372901     0.83547700     0.14761583    -3.28439936    -0.88749809
O       5.28659244     2.85512743     5.56577164     0.92415561    -1.22140969     1.28328846
O      -0.09768898     4.77476500     0.93254801     0.68837867     0.76267510    -0.57382442
O      -2.14991455    -1.02585556     5.55453261     1.01320143     1.10822018     1.00816849
O      -0.09522502     0.93045998     0.89935198     0.30083435     0.93230035    -0.89033633
O       3.82348645     2.97637745     8.91823764    -0.00082250    -0.58611326     0.34756443
O       5.88195198     4.70645399     4.08232599     0.30127375     0.86505364     0.24315549
O       3.80255347    -0.81551755     8.94752061    -0.20202656    -1.04934601     0.12088149
O       5.54483803     1.08080400     4.05606297     1.18876953    -2.33634714     0.39331234
O       0.15374144     2.79048743     8.93508865    -1.16045087     0.40537699     0.84926988
O       1.95566301     4.50360902     4.11308299    -0.44558777     2.46711350     0.02599335
O      -0.08319958    -0.83312857     9.05660362     0.70772983     0.93112587    -1.54309827
O       1.96141299     0.96325801     4.26592700    -0.04358021     0.97357943    -0.72317548
O       1.93538044     1.17906544     8.30561861     0.47954691    -1.00433086    -0.97291428
O       4.01697001     3.09646401     3.16161499    -1.56754304    -0.29579833    -0.77952020
O       1.76471347    -2.76221957     7.96716160     0.19134825    -0.06905189     0.44321670
O       3.69585202    -0.77185402     3.18431198     1.18502292    -0.97155520     0.42253885
O      -1.90453057     0.92956244     7.90599363     0.69692142     0.77389694     1.04106242
O       0.08566401     2.86147798     3.23007200     0.66944635    -0.28929086     0.05689159
O      -2.00119453    -2.67113457     8.30284762     0.26070559    -0.65021449    -1.18982034
O       0.06287499    -0.79417699     3.43881401    -2.90926421     0.13341716    -0.50483578
O       3.77292245     4.78886144     6.46444860    -1.67757473    -0.48837017     1.12479326
O       5.73289402     6.70332302     1.83694198    -0.19966860    -0.23499660    -1.69568379
O       3.79852246     0.75435847     6.55492664    -0.64106162     0.76148905    -0.10260222
O       5.83514398     2.63234497     1.69027400     0.78495757     0.66848424    -1.28278452
O      -0.25442556     4.57413147     6.47162160     3.19533811     0.03934406     0.34900990
O       1.88943399     6.91573302     1.71252701    -1.26042389    -1.13438116    -1.16397997
O       0.17041344     0.82463046     6.54382762    -1.47513268     0.23886431    -2.49943253
O       2.01847301     2.83204800     1.64597398    -0.34706409     0.27667369    -0.79466220
