# total energy = -19070.82367204 eV

CRYSTAL
PRIMVEC
        5.17600016     0.00000000     0.00000000
        0.00000000     5.50899976     0.00000000
        0.00000000     0.00000000     9.26300011
PRIMCOORD
22 1
Ti      1.40336701     3.08671101     3.27849500     0.00021957    -0.34695893     0.42498551
Ti      4.75359998     3.14998002     5.52601302    -2.45427829    -0.73677662     1.77573203
Ti      4.22160200     1.93765399     1.54279098     2.13562438     0.23551776     0.97809763
Ti      1.26727500     2.90270999     8.11258401    -0.33441143     1.12040850    -0.03879282
Ti      1.59947502     0.55063698     1.28143102    -1.54364720    -2.02902769    -1.07112712
Ti      3.36545502     5.28202601     8.06571001     0.01268429    -0.40733771     0.46572929
Ti      1.51165800     0.12027199     6.03405202    -1.41521669     1.99589156     0.01715929
Ti      3.73598398     4.95551200     3.52627400     0.70551843     1.37494009    -1.30944070
O       3.20653700     3.51357099     4.43156398    -1.80431011    -3.68754514     1.95949192
O       0.63388799     2.26425499     0.51919099    -0.08446668    -0.90369733    -1.08756727
O       4.63257799     3.78751198     7.43067001     1.10603268     0.30638511     0.23051105
O       3.41224402     0.55294900     0.68322101     1.43685511    -0.33252835    -3.61213003
O       2.15148103     4.42119602     9.14120001    -1.88306097    -1.12451738     1.42544738
O       2.76758098     0.24264798     4.87367998     1.36565918     2.14879075    -0.53433997
O       0.20147302     4.65218602     4.84908800     1.26552598     1.58174788    -0.05732431
O       4.68942501     3.34541799     2.74105502     1.83425833     0.30975403    -1.29522841
O       0.78609101     2.03845199     4.87060498     0.59366100    -0.61009318    -0.16882898
O       2.48796103     1.72585900     2.26171002    -1.09311854     3.22627801     3.57475286
O       2.18495900     4.20946299     6.95598098    -0.53760167    -1.05403236    -1.85091137
O       5.06810700     0.60434000     2.57024798     0.24443153     0.34036199    -0.59393251
O       2.20217801     1.33168302     7.49573500     0.23767929    -0.48047920     0.05161003
O       2.07509498     4.67324701     2.48463599     0.21196182    -0.92708178     0.71610623
