# total energy = -4990.31810966 eV

CRYSTAL
PRIMVEC
        3.91724266     0.00000000     0.00000000
       -0.00000872     3.91724266     0.00000000
       -1.95865205    -1.95865641     4.99927284
PRIMCOORD
6 1
Ti     -0.00017250     2.93808036     1.24981807    -0.00008048     0.00008048     0.00000000
Ti      1.95875428    -0.97949422     3.74945444     0.00008048    -0.00008048     0.00000000
O       0.00003913     0.97930401     0.81434064    -0.00021212    -0.00080321    -0.41542769
O       1.95854254     0.97928202     4.18493193     0.00021212     0.00080321     0.41542769
O      -0.00002212    -0.97928700     3.31397700    -0.00080321    -0.00021212    -0.41542769
O       1.95860374     2.93787298     1.68529556     0.00080321     0.00021212     0.41542769
