# total energy = -19894.93450305 eV

CRYSTAL
PRIMVEC
        8.80395527     0.00000000     0.00000000
        0.00002883     4.01574449     0.00000000
        0.00000000     0.00000000    13.39893181
PRIMCOORD
24 1
Ti      3.19102728     2.37972649     4.97090814     0.22962505    -0.31675797     2.79089315
Ti      5.61295643     1.63601807     8.42802386    -0.22962505     0.31675797    -2.79089315
Ti      7.59285423     1.63601944     1.72850427     0.23128624     0.31774399    -2.79213988
Ti      1.21112948     2.37972525    11.67042786    -0.23128624    -0.31774399     2.79213988
Ti      3.19101306     0.37185430     1.72855802     0.22962505    -0.31675797    -2.79089315
Ti      5.61297065     3.64389032    11.67037411    -0.22962505     0.31675797     2.79089315
Ti      1.21111526     0.37185281     8.42797011    -0.23128624    -0.31774399    -2.79213988
Ti      7.59286845     3.64389182     4.97096189     0.23128624     0.31774399     2.79213988
O       2.78651748     1.41401189     6.83737239     1.26183362     1.02895252    -2.38179063
O       6.01746624     2.60173261     6.56155961    -1.26183362    -1.02895252     2.38179063
O       1.61553173     1.41402809     0.13794950    -1.26068665     1.02867305    -2.38183871
O       7.18845205     2.60171647    13.26098212     1.26068665    -1.02867305     2.38183871
O       6.01745208     0.59386036     0.13790604    -1.26183362    -1.02895252    -2.38179063
O       2.78653164     3.42188420    13.26102558     1.26183362     1.02895252     2.38179063
O       7.18843789     0.59384416     6.83741586     1.26068665    -1.02867305    -2.38183871
O       1.61554576     3.42190040     6.56151615    -1.26068665     1.02867305     2.38183871
O       0.31988546     2.44260342     3.61938579    -2.09487598     0.62404888     0.02582468
O       8.48409825     1.57314107     9.77954622     2.09487598    -0.62404888    -0.02582468
O       4.72187429     1.57310366     3.08012281    -2.09354775    -0.62373649    -0.02613450
O       4.08210942     2.44264090    10.31880900     2.09354775     0.62373649     0.02613450
O       0.31987130     0.43473118     3.08008005    -2.09487598     0.62404888    -0.02582468
O       8.48411241     3.58101338    10.31885176     2.09487598    -0.62404888     0.02582468
O       4.08209526     0.43476859     9.77958891     2.09354775     0.62373649    -0.02613450
O       4.72188845     3.58097597     3.61934303    -2.09354775    -0.62373649     0.02613450
