# total energy = -19067.67282067 eV

CRYSTAL
PRIMVEC
        5.17600016     0.00000000     0.00000000
        0.00000000     5.50899976     0.00000000
        0.00000000     0.00000000     9.26300011
PRIMCOORD
22 1
Ti      1.74526203     3.27285397     3.21702498    -0.14324727    -0.22376216     1.66883066
Ti      4.00137801     2.46336100     6.17207600    -1.07165625    -0.48691004     0.57915457
Ti      4.28283400     2.30842299     1.50210302    -1.53866697    -0.32063777    -2.65158327
Ti      1.71914999     2.08884798     8.15699499    -0.98716643    -0.73987120    -0.44155062
Ti      1.46767702     0.80294498     1.36580500     2.75585337    -0.83420630    -1.82606062
Ti      3.23927900     5.21991700     7.78307999    -0.97648426     1.93775967     0.31310854
Ti      0.57913502     5.46925199     5.88396899    -0.04402604     1.91961281     0.14658533
Ti      4.15719901     5.13981798     3.31510401    -0.35023169     0.78007505     2.43664565
O       2.90909102     2.89649100     4.80216802    -1.52639715     3.32366989    -1.87006095
O       0.89360601     2.41481201     0.51513400    -2.52884802     1.49192404     1.33447066
O       4.65807602     4.33837300     7.00104502     3.88297605     0.32159705    -3.39059393
O       3.09598198     1.43920601     0.16796298     3.33257799     0.86480347     1.08428706
O       1.60831302     0.28947498     8.61852201    -2.02160389    -5.37210582     1.66277391
O       4.42722599     1.13819100     4.75949401     1.65900107    -2.25491667     1.46088079
O       0.84820901     4.77757599     4.02185701    -0.56694234     0.94059396     4.52056333
O       4.94431101     3.64223700     2.51834802     0.10469073    -0.59493189    -0.57706349
O       5.12318203     1.40039102     7.43248498    -2.60041367     0.23133689    -1.99089616
O       2.64055400     1.68814898     2.56781599    -0.30832449     0.51948259     0.08737152
O       3.08421102     3.21943702     7.76504399    -1.75327215     1.30965642     0.61962735
O       4.97413502     0.87097702     2.30515399     1.21212441    -1.12646962    -0.63720573
O       2.00957098     1.23986198     6.43866597     2.24172022    -1.50219509    -1.07059464
O       2.45322202     4.67992602     2.30869800     1.22833702    -0.18450577    -1.45868995
