# total energy = -4984.18152174 eV

CRYSTAL
PRIMVEC
        3.54830801     0.00000000     0.00000000
        0.00000000     2.99366668     0.00000000
        0.00000000    -0.00006762     4.69963344
PRIMCOORD
6 1
Ti      1.77415391     1.49679948     2.34981687     0.00000000     0.00000000     0.00000000
Ti      0.00000000     0.00000000     0.00000000     0.00000000     0.00000000     0.00000000
O       1.77415391     0.58340836     0.91588939     0.00000000    -2.79792255    -2.52954659
O       1.77415391     2.41019065     3.78374430     0.00000000     2.79792255     2.52954659
O       0.00000000     0.91336418     3.26570715     0.00000000     2.79744072    -2.52780364
O       0.00000000     2.08023478     1.43392658     0.00000000    -2.79744072     2.52780364
