# total energy = -4986.17946611 eV

CRYSTAL
PRIMVEC
        2.77289713     0.00000000     0.00000000
        0.86033935     4.25868020     0.00000000
       -0.00000573    -0.00005689     4.36682023
PRIMCOORD
6 1
Ti      1.81661533     2.12931166     2.18341022     0.00000000     0.00000000     0.00000000
Ti      0.00000000     0.00000000     0.00000000     0.00000000     0.00000000     0.00000000
O       1.55411487     0.82994300     0.85102900    -3.56471887     1.75831871     1.93928485
O       2.07911578     3.42868032     3.51579143     3.56471887    -1.75831871    -1.93928485
O       0.26249811     1.29934562     3.03444000     3.56523720    -1.75988374     1.94097021
O       0.59783550     2.95927760     1.33238043    -3.56523720     1.75988374    -1.94097021
