# total energy = -19957.05855355 eV

CRYSTAL
PRIMVEC
        7.60600008     0.00000000     0.00000000
        0.00000000     7.60600008     0.00000000
       -1.89786986    -1.89786986     4.85670466
PRIMCOORD
24 1
Ti      3.78596202     6.67644002     1.30863698    -2.88806186     1.33429891     0.47349093
Ti      3.77400801     2.93711900     1.39909200    -1.22435258    -0.65796740    -3.00541682
Ti      0.00927002     6.44335798     1.06997502     1.35641709     0.95401024     4.45397379
Ti      0.13141598     2.74695598     1.05192198     0.63290659    -0.94234463     1.80181768
Ti      5.73526124     2.75509420     3.53527482     0.77379255    -1.05270361    -0.56592033
Ti      5.71165824    -1.07921075     3.62793683     1.83048806     1.26404657     0.23456080
Ti      1.80972121     3.13290924     3.72731283    -0.25172806    -3.46200737    -1.31949629
Ti      1.78912722    -0.83022476     3.75487280    -1.10471808     3.13853239    -0.68096772
O       3.24955700     4.96069799     0.80420099     2.54800094     0.17657623    -0.38231033
O       3.52567603     1.13042199     0.94351002     0.98228853    -1.71250678    -1.01779933
O       0.14324003     4.58693698     0.75335002    -0.86054880     1.16229821    -0.40540913
O       0.45121399     0.91199402     0.85941799    -2.07495995    -0.46177441    -2.81873821
O      -1.54900680     4.55521725     4.19934581    -0.73890087     1.53403127    -4.23712533
O       5.79400420     0.90874625     3.88772481    -0.28340304    -1.47537333     0.17701126
O       1.88934921     4.93539221     3.87922781     0.16231509    -1.25961476     2.24282528
O       1.87123923     1.13454825     4.00659681     0.39200005    -1.11297878     1.56440938
O       3.75568625     2.81988121     3.26291883     1.81871986     0.95943090     1.32194784
O       3.57636221    -0.92480376     3.33101881     4.59944584    -0.38784668    -0.62403114
O       0.21730521     2.60276624     2.94647480    -3.24537463     1.05474636     1.83616429
O      -0.02182279     6.40953122     3.00418783    -1.96723043     0.40321932     2.32843945
O       5.67135198     6.73642602     1.64212601    -0.69009180    -0.67667475    -0.31766120
O       5.72143601     2.73080200     1.62642099     0.44472131     0.69599043     0.04023675
O       1.84223100     6.72433803     1.73760801     0.14693474     0.03996421    -0.63512854
O       1.96860102     2.98776698     1.64031898    -0.35866105     0.48464747    -0.46487285
