# total energy = -4988.88224130 eV

CRYSTAL
PRIMVEC
        4.28804972     0.00000000     0.00000000
       -0.00000799     3.50840412     0.00000000
       -2.14405347    -1.75424215     5.02525688
PRIMCOORD
6 1
Ti     -0.00018611     2.63143385     1.25631435    -0.00189053    -0.00334758     4.39099871
Ti      2.14417437    -0.87727210     3.76894268     0.00189053     0.00334758    -4.39099871
O       0.00004423     0.87709364     0.81857334     0.00047797     0.00179823    -0.88819383
O       2.14394392     0.87706800     4.20668375    -0.00047797    -0.00179823     0.88819383
O      -0.00002074    -0.87708566     3.33120167    -0.00178178    -0.00034838    -1.00415988
O       2.14400879     2.63124731     1.69405537     0.00178178     0.00034838     1.00415988
