# total energy = -19516.61510118 eV

CRYSTAL
PRIMVEC
        5.93400000     0.00000000     0.00000000
        0.00000000     9.29699974     0.00000000
        0.00000000     0.00000000     4.64899994
PRIMCOORD
23 1
Ti      4.58351601     7.03919500     2.29955900     0.96579155    -0.35326842     0.79921229
Ti      4.37534498     2.25534899     2.33391499     0.76970887    -0.00346122     0.02870715
Ti      1.51432002     7.20987498     2.17694101    -0.21960597    -0.29002157     0.04489611
Ti      1.44963901     2.28122200     2.38177801    -1.06369328    -0.51707989    -0.32173717
Ti      3.05504203     4.43967002     0.03834900    -0.19115722     0.21470879     0.91152326
Ti      2.93047698     9.27077499     4.61516001    -0.37958187    -0.52041616    -0.33946236
Ti      0.04592999     4.64807500     0.05494998     0.33949733     1.52052501    -0.52387275
Ti      5.85393099     0.17874999     0.04716102     0.68541291    -0.72113377    -0.73330075
O       4.36710902     5.56301198     0.91071098     0.04479532    -0.64823525    -0.32194337
O       4.39260198     0.90896401     0.97922800    -0.79639461    -0.74552198    -1.42976914
O       1.47709198     5.75634202     0.85956298     0.32293068    -1.13212733     0.28814081
O       1.58449602     0.79251199     1.11632899    -0.49104978     0.45308305    -1.20866859
O       4.52355599     8.41819001     3.67577498    -0.75164815    -0.39858362     0.71243829
O       4.45934499     3.72109198     3.58284400    -0.79946760     1.29969390     2.11266468
O       1.22561198     8.33315202     3.84720502     2.27913416     0.06104830    -0.77074657
O       1.48819999     3.81870301     3.72970301     0.40578913    -1.09036489    -0.04335499
O       3.03292601     1.33056100     3.21863902    -1.96610172    -0.21794324     1.20826955
O       0.09167901     5.91042002     3.26637002    -0.89748683     1.18204918    -0.98312362
O       5.84831001     1.27057701     3.08958899     1.02069979     0.49135059     1.92069242
O       3.15784502     7.89891700     1.30891601    -1.31965930    -1.16141169     1.47978432
O       2.89118800     3.18631698     1.46964101    -0.34176813     0.75558476    -1.09107271
O       5.91756201     7.98797398     1.47952397    -0.34670002    -0.25549679    -0.21126403
O       5.75256100     3.01090499     1.39936198     2.73055422     2.07702198    -1.52801283
