# total energy = -19909.48501043 eV

CRYSTAL
PRIMVEC
        6.56801615     0.00000000     0.00000000
        2.37395506     6.57490783     0.00000000
        0.00000000     0.00000000    11.94514386
PRIMCOORD
24 1
Ti      3.78739362     3.89628419     4.43156320    -0.25684662    -2.03750874     0.57883781
Ti      5.15457782     2.67862347     7.51358080     0.25684662     2.03750874    -0.57883781
Ti      6.63164220     2.67862570     1.54096111    -0.02093856    -0.91132374     0.01960261
Ti      2.31032928     3.89628215    10.40418302     0.02093856     0.91132374    -0.01960261
Ti      2.60041625     0.60883045     1.54100900    -0.25684662    -2.03750874    -0.57883781
Ti      6.34155521     5.96607734    10.40413513     0.25684662     2.03750874     0.57883781
Ti      1.12335178     0.60882803     7.51353291     0.02093856     0.91132374     0.01960261
Ti      7.81861970     5.96607982     4.43161109    -0.02093856    -0.91132374    -0.01960261
O       2.91472857     2.31513674     6.09551548     1.82291462     2.06167866    -0.72774588
O       6.02724287     4.25977091     5.84962851    -1.82291462    -2.06167866     0.72774588
O       2.04114745     2.31516326     0.12298198    -0.44568470    -0.43540825     1.35960217
O       6.90082407     4.25974444    11.82216168     0.44568470     0.43540825    -1.35960217
O       4.84026548     0.97231704     0.12294322    -1.82291462    -2.06167866    -0.72774588
O       4.10170596     5.60259061    11.82220044     1.82291462     2.06167866     0.72774588
O       5.71384667     0.97229051     6.09555425     0.44568470     0.43540825     1.35960217
O       3.22812471     5.60261716     5.84958975    -0.44568470    -0.43540825    -1.35960217
O       1.68260521     3.99923155     3.22668137     0.58559133     2.34608905     2.28972685
O       7.25936623     2.57567610     8.71846263    -0.58559133    -2.34608905    -2.28972685
O       4.45261134     2.57561486     2.74592860     0.62419183     1.98408171     1.33827769
O       4.48936010     3.99929279     9.19921520    -0.62419183    -1.98408171    -1.33827769
O       0.49562782     0.71177768     2.74589043     0.58559133     2.34608905    -2.28972685
O       8.44634362     5.86312998     9.19925336    -0.58559133    -2.34608905     2.28972685
O       3.30238272     0.71183892     8.71850066    -0.62419183    -1.98408171     1.33827769
O       5.63958873     5.86306873     3.22664327     0.62419183     1.98408171    -1.33827769
