# total energy = -19958.42957158 eV

CRYSTAL
PRIMVEC
        7.60600008     0.00000000     0.00000000
        0.00000000     7.60600008     0.00000000
       -1.89786986    -1.89786986     4.85670466
PRIMCOORD
24 1
Ti      3.62076198     6.84037702     1.23431498     2.14766204    -1.87845818    -0.01082923
Ti      3.73762601     3.00269602     1.21138102     1.99497445     2.13617177    -0.49601432
Ti     -0.04303502     6.55127600     1.34318701    -2.17829828    -1.29975355    -0.90224569
Ti      0.13852802     2.68556301     1.30047098    -3.00425340     0.57680613    -1.57484678
Ti      5.74700220     2.68790224     3.57982483     1.52315962     0.57840407     0.93298709
Ti      5.64654325    -1.14584978     3.63397284    -0.02510940    -1.03175220     0.22489910
Ti      2.01470220     2.93615024     3.53580083    -1.17285079    -0.90656026     2.90192474
Ti      1.92085621    -0.90642380     3.70484782    -0.78426800     1.07224760    -0.57408384
O       4.02106901     4.89090697     0.84893202    -1.13597113    -1.21785103    -0.67601346
O       3.67855703     1.17390199     0.82070602     0.57362850    -2.25650330    -1.47553685
O       0.08351200     4.77188300     0.61034801     0.15848749    -0.29258393     1.55334361
O      -0.19221300     0.70979799     0.88277799     0.77718410     1.62158817    -0.64619277
O       5.52590322     4.58608622     3.75053180     0.15898577     1.96113589     1.27936444
O       5.94386921     0.83993622     4.22288282    -0.52770678    -0.11248118    -0.41777434
O       1.79072020     4.77720922     3.97315879     1.04768867     3.06796793     1.09857622
O       1.58256320     1.09380620     3.80076882     1.39278124    -1.30524054     1.51189664
O       3.93128721     2.74774821     3.08297682    -1.82047695    -0.28217868     0.02377860
O       3.80588924    -0.63729277     3.20069981    -2.16344424    -0.18210076    -0.06601053
O       0.17289025     3.11455822     3.23802882    -1.19661988    -0.82162692    -0.17753885
O      -0.18151976    -0.91071876     3.22474382     4.03318561    -0.52544318     0.79599018
O       5.72024801     6.36976900     1.75073001    -1.50545088     1.12078156    -1.36296132
O       5.91422200     2.86657602     1.68501699    -0.84940101    -0.44782772    -1.48293752
O       1.87958399     6.61619801     1.54275399     0.56268871     0.09406050     1.16426768
O       1.92645898     2.98548300     1.68361901     1.99342484     0.33119883    -1.62404254
