# total energy = -19957.08035342 eV

CRYSTAL
PRIMVEC
        5.93400000     0.00000000     0.00000000
        0.00000000     9.29699974     0.00000000
        0.00000000     0.00000000     4.64899994
PRIMCOORD
24 1
Ti      4.49250202     7.13619901     2.45421402    -1.08658228     0.95524977    -2.71719476
Ti      4.57037003     2.35021799     2.23853698    -4.26739545     0.81405064    -0.46617460
Ti      1.46496800     6.58965998     2.52788200     1.80271371     2.80917550    -2.29566250
Ti      1.38981002     2.39686602     2.47368298     3.65697163    -0.72243243    -2.05413710
Ti      3.10761102     4.49788401     0.00219101     0.11160906     2.58446871     1.81559957
Ti      2.91743398     0.23695599     4.45753901    -2.37343172    -2.76802421    -0.23638603
Ti      0.03924199     4.44936402     4.64675999    -0.59585955     3.90656362     0.69035123
Ti      5.80987402     0.24030299     4.63212898     2.68577587    -3.46560872     0.61176106
O       4.55034702     5.37490000     0.85770700    -0.09327940    -0.21552409     0.05846099
O       4.34116002     1.26802601     0.58646302     0.31438818    -1.20445481     1.23589684
O       1.52563002     5.44878997     0.92700699    -0.43676194    -0.85441981     0.12060021
O       1.24511697     1.18535101     0.80443202     1.15360068    -1.15356417    -0.98053632
O       4.38044598     8.71677800     3.48751901    -0.07620933    -0.37808909     2.01237748
O       4.45281902     3.48064098     3.88302101     1.01021869    -0.13678840    -1.81071601
O       1.39588698     8.34000798     3.77262802     0.55033969     2.11478816     0.82393782
O       1.58281001     3.66012700     3.75882300    -0.73377794     0.01134988    -0.48143307
O       3.13452598     6.07727998     3.24876000    -1.18291358    -2.17889812     1.55903886
O       2.99063999     1.39761199     2.98085503    -1.26945257    -0.11335690     0.53274383
O       5.90302900     6.06791900     3.44078800    -0.38297650    -1.11847040    -0.31080561
O       5.89103600     1.40841800     3.07919098     0.46845028    -0.68539311     0.51861227
O       2.88346397     7.72519599     1.52873698     1.22696122     0.78558878    -0.48534295
O       2.99033799     3.25303099     1.40619101    -0.39511828    -0.09389698     0.87355525
O       0.01534799     7.73014702     1.41498599    -0.70138280     0.68515245     0.21576603
O       0.00933199     3.22459899     1.42616798     0.61411233     0.42253371     0.76968701
