# total energy = -4956.28832737 eV

CRYSTAL
PRIMVEC
        5.28827770     0.00000000     0.00000000
       -0.00000731     2.54620762     0.00000000
       -2.64416848    -1.27317495     5.69717722
PRIMCOORD
6 1
Ti     -0.00022592     1.90974014     1.42429401    -0.01819725    -0.01959490    34.22475183
Ti      2.64432778    -0.63670763     4.27288251     0.01819725     0.01959490   -34.22475183
O       0.00005627     0.63653969     0.92802348     0.01675743     0.01878757   -27.09959884
O       2.64404542     0.63649271     4.76915309    -0.01675743    -0.01878757    27.09959884
O      -0.00002160    -0.63656864     3.77661198    -0.00169359    -0.00008253    -1.61643105
O       2.64412324     1.90960104     1.92056459     0.00169359     0.00008253     1.61643105
