# total energy = -19952.13825503 eV

CRYSTAL
PRIMVEC
        5.38019453     0.00000000     0.00000000
        0.00002502     4.68503524     0.00000000
        0.00000000     0.00000000     8.84239248
PRIMCOORD
24 1
Ti      1.95007656     2.77634745     3.28046466    -0.46162786     1.51135336    -2.57587454
Ti      3.43014304     1.90868759     5.56192818     0.46162786    -1.51135336     2.57587454
Ti      4.64008061     1.90868911     1.14069643    -0.45316430    -1.51138499     2.58313868
Ti      0.74013899     2.77634609     7.70169650     0.45316430     1.51138499    -2.58313868
Ti      1.95006425     0.43382993     1.14073188    -0.46133064     1.51136108     2.58175234
Ti      3.43015535     4.25120526     7.70166105     0.46133064    -1.51136108    -2.58175234
Ti      0.74012668     0.43382822     5.56189272     0.45329337     1.51125155     2.57784041
Ti      4.64009291     4.25120693     3.28050011    -0.45329337    -1.51125155    -2.57784041
O       1.70287436     1.64968048     4.51220534     0.21612547    -1.63189855     1.52890089
O       3.67734523     3.03535456     4.33018750    -0.21612547     1.63189855    -1.52890089
O       0.98727196     1.64969942     0.09103740    -0.21638772    -1.63419018     1.53044098
O       4.39294768     3.03533568     8.75135518     0.21638772     1.63419018    -1.53044098
O       3.67733293     0.69283689     0.09100869    -0.21551406     1.63288920     1.52946782
O       1.70288667     3.99219815     8.75138389     0.21551406    -1.63288920    -1.52946782
O       4.39293533     0.69281801     4.51223404     0.21728941     1.63332063     1.53027026
O       0.98728417     3.99221709     4.33015879    -0.21728941    -1.63332063    -1.53027026
O       0.19549003     2.84970404     2.38855090     1.18834530    -0.44831005     0.54210368
O       5.18472956     1.83533101     6.45384194    -1.18834530     0.44831005    -0.54210368
O       2.88559268     1.83528746     2.03267365     1.18993475     0.44798172    -0.53944464
O       2.49462692     2.84974758     6.80971903    -1.18993475    -0.44798172     0.53944464
O       0.19547767     0.50718636     2.03264540     1.18923181    -0.44802800    -0.53941404
O       5.18474192     4.17784868     6.80974729    -1.18923181     0.44802800     0.53941404
O       2.49461456     0.50722991     6.45387014    -1.18916779    -0.44848206    -0.54195789
O       2.88560504     4.17780514     2.38852264     1.18916779     0.44848206     0.54195789
