# total energy = -19881.74003464 eV

CRYSTAL
PRIMVEC
        9.31635451     0.00000000     0.00000000
        0.00002896     3.30513950     0.00000000
        0.00000000     0.00000000    14.82153424
PRIMCOORD
24 1
Ti      3.37674736     1.95862250     5.49868362     0.21306637     0.09364810     2.01454852
Ti      5.93963573     1.34651669     9.32285107    -0.21306637    -0.09364810    -2.01454852
Ti      8.03476570     1.34651775     1.91202451     0.21280283    -0.09373166    -2.01517587
Ti      1.28161745     1.95862156    12.90951031    -0.21280283     0.09373166     2.01517587
Ti      3.37673326     0.30605281     1.91208395     0.21306637     0.09364810    -2.01454852
Ti      5.93964989     2.99908650    12.90945087    -0.21306637    -0.09364810     2.01454852
Ti      1.28160329     0.30605168     9.32279163    -0.21280283     0.09373166    -2.01517587
Ti      8.03477987     2.99908763     5.49874306     0.21280283    -0.09373166     2.01517587
O       2.94869508     1.16379570     7.56331565     1.03017946     0.48143307    -1.92967689
O       6.36768808     2.14134354     7.25821904    -1.03017946    -0.48143307     1.92967689
O       1.70955676     1.16380912     0.15259603    -1.03207153     0.48218667    -1.93042945
O       7.60682646     2.14133013    14.66893822     1.03207153    -0.48218667     1.93042945
O       6.36767391     0.48877373     0.15254789    -1.03017946    -0.48143307    -1.92967689
O       2.94870924     2.81636545    14.66898635     1.03017946     0.48143307     1.92967689
O       7.60681230     0.48876038     7.56336372     1.03207153    -0.48218667    -1.93042945
O       1.70957073     2.81637887     7.25817097    -1.03207153     0.48218667     1.93042945
O       0.33850210     2.01037320     4.00366624    -1.46313719     0.52372105     0.84282104
O       8.97788106     1.29476599    10.81786839     1.46313719    -0.52372105    -0.84282104
O       4.99669167     1.29473535     3.40714820    -1.46309322    -0.52375602    -0.84336380
O       4.31969148     2.01040390    11.41438624     1.46309322     0.52375602     0.84336380
O       0.33848793     0.35780345     3.40710089    -1.46313719     0.52372105    -0.84282104
O       8.97789522     2.94733580    11.41443355     1.46313719    -0.52372105     0.84282104
O       4.31967738     0.35783408    10.81791564     1.46309322     0.52375602    -0.84336380
O       4.99670577     2.94730510     4.00361893    -1.46309322    -0.52375602     0.84336380
