# total energy = -19952.72163416 eV

CRYSTAL
PRIMVEC
        5.15515498     0.00000000     0.00000000
        1.60979898     5.24516985     0.00000000
        0.00000000     0.00000000     9.33453426
PRIMCOORD
24 1
Ti      2.82246109     3.10828282     3.46304563     1.82249964    -2.33862051     1.03861293
Ti      3.94249278     2.13688715     5.87148868    -1.82249964     2.33862051    -1.03861293
Ti      5.10182227     2.13688895     1.20418423    -3.57560518    -0.14353009     1.30856755
Ti      1.66313168     3.10828122     8.13035019     3.57560518     0.14353009    -1.30856755
Ti      2.01756172     0.48569798     1.20422165     1.82249964    -2.33862051    -1.03861293
Ti      4.74739217     4.75947214     8.13031276    -1.82249964     2.33862051     1.03861293
Ti      0.85823220     0.48569603     5.87145125     3.57560518     0.14353009     1.30856755
Ti      5.90672169     4.75947410     3.46308306    -3.57560518    -0.14353009    -1.30856755
O       2.19847666     1.84691351     4.76334138     0.09307114     0.82108390    -0.89027977
O       4.56647722     3.39825652     4.57119293    -0.09307114    -0.82108390     0.89027977
O       1.51281260     1.84693467     0.09610428     0.67089851    -0.68560317     0.23922401
O       5.25214133     3.39823540     9.23842977    -0.67089851     0.68560317    -0.23922401
O       3.76157782     0.77567152     0.09607400    -0.09307114    -0.82108390    -0.89027977
O       3.00337605     4.46949850     9.23846005     0.09307114     0.82108390     0.89027977
O       4.44724194     0.77565040     4.76337167    -0.67089851     0.68560317     0.23922401
O       2.31771190     4.46951968     4.57116264     0.67089851    -0.68560317    -0.23922401
O       1.16646970     3.19040968     2.52149058    -0.04967836    -0.24514012    -0.43031695
O       5.59848417     2.05476034     6.81304373     0.04967836     0.24514012     0.43031695
O       3.39549938     2.05471144     2.14580626     1.40005001    -0.64561170    -1.25413522
O       3.36945449     3.19045859     7.18872789    -1.40005001     0.64561170     1.25413522
O       0.36157026     0.56782469     2.14577644    -0.04967836    -0.24514012     0.43031695
O       6.40338357     4.67734534     7.18875771     0.04967836     0.24514012    -0.43031695
O       2.56455510     0.56787359     6.81307349    -1.40005001     0.64561170    -1.25413522
O       4.20039878     4.67729643     2.52146077     1.40005001    -0.64561170     1.25413522
