# total energy = -4933.94871201 eV

CRYSTAL
PRIMVEC
        4.85186643     0.00000000     0.00000000
       -0.00000670     2.33608369     0.00000000
       -2.42596040    -1.16810711     5.22702182
PRIMCOORD
6 1
Ti     -0.00020728     1.75214023     1.30675518    -0.03293224    -0.02874983    54.10273962
Ti      2.42610656    -0.58416380     3.92026599     0.03293224     0.02874983   -54.10273962
O       0.00005163     0.58400972     0.85143902     0.03217942     0.02851997   -44.29054294
O       2.42584750     0.58396661     4.37558220    -0.03217942    -0.02851997    44.29054294
O      -0.00001982    -0.58403628     3.46494983    -0.00110763     0.00006325    -0.43657785
O       2.42591890     1.75201261     1.76207139     0.00110763    -0.00006325     0.43657785
