# total energy = -19960.51103780 eV

CRYSTAL
PRIMVEC
        7.60600008     0.00000000     0.00000000
        0.00000000     7.60600008     0.00000000
       -1.89786986    -1.89786986     4.85670466
PRIMCOORD
24 1
Ti      3.76081901     6.88459200     1.18999501     1.60959885    -1.42689594     0.49790305
Ti      3.80124402     2.90096302     1.25420300     0.00711656     1.41883218    -0.89329979
Ti      0.00107502     6.48212503     1.22849001    -1.24127533     0.28987733     0.26054284
Ti      0.02632001     2.74825601     1.21414000     0.25496123     0.15772670    -0.32463455
Ti      5.68913625     2.82256123     3.57833080     0.24178406     0.52527014     1.11487522
Ti      5.57101420    -1.02109778     3.62288483     1.35332482    -0.74817227     0.84515252
Ti      1.91645124     2.97762720     3.67533280    -0.24409625    -2.08019909     0.00429554
Ti      1.93267724    -0.95114176     3.60139981    -1.33802932     1.89084242     0.05878650
O       3.92408500     4.74963999     0.77345700    -0.60830035     1.51671823     0.33447468
O       4.10483301     1.12775901     0.69283399    -0.85239095    -2.35759577     0.69642443
O       0.10909502     4.67326600     0.75458998     0.34648610    -0.64568523     0.02120647
O      -0.02913100     0.69432802     0.83620102     0.40078397     2.93481867    -0.23195319
O       5.23314924     4.65745821     4.12214980     1.13982290     0.15204096    -0.42729205
O       5.67063023     0.92498220     4.05011984     0.23153255    -1.00658392     0.41686108
O       2.12108323     4.86349623     4.05373682    -0.56774993    -0.31001216     0.88110247
O       1.88347021     1.10421422     4.02956781    -0.54374250    -1.33857491    -0.13080878
O       3.84984022     2.77026524     3.16875179    -0.73263920     0.03630142     0.08002330
O       3.74463724    -0.81780375     3.19136179     0.25943032     0.52313613    -0.50047467
O       0.02285622     3.12065424     3.16965981     0.42759955    -0.26831631     0.65825845
O      -0.10875878    -1.17202278     3.19793279     1.33888704     0.21094598     0.87120217
O       5.68309701     6.55253402     1.73847602    -1.52686920     0.21030038    -0.97920526
O       5.79308597     2.89138999     1.67948302    -0.37117127    -0.31433625    -0.88490307
O       1.91605001     6.57334201     1.70247101     0.54447398     0.44170232    -1.53308691
O       1.93708100     2.70732500     1.69350198    -0.12953762     0.18785901    -0.83544994
