# total energy = -4987.70327600 eV

CRYSTAL
PRIMVEC
        3.51901118     0.00000000     0.00000000
        0.17583313     3.51461554     0.00000000
       -1.84745340    -1.75733749     4.49244594
PRIMCOORD
6 1
Ti      0.13173269     2.63609511     1.12311136     0.00172161    -0.00169024    -0.00076850
Ti      1.71565777    -0.87881749     3.36933433    -0.00172161     0.00169024     0.00076850
O       0.04399530     0.87864813     0.73178271     0.00039389     0.00275082     1.65188400
O       1.80339501     0.87862939     3.76066303    -0.00039389    -0.00275082    -1.65188400
O      -0.04397795    -0.87863163     2.97800568     0.00273797     0.00046614     1.65131167
O       1.89136826     2.63590911     1.51444011    -0.00273797    -0.00046614    -1.65131167
