# total energy = -19518.85029940 eV

CRYSTAL
PRIMVEC
        7.60600008     0.00000000     0.00000000
        0.00000000     7.60600008     0.00000000
       -1.89786986    -1.89786986     4.85670466
PRIMCOORD
23 1
Ti      3.82283599     6.70769302     1.16553501     0.15602051    -0.72459473    -0.39902636
Ti      3.83052001     2.82838599     1.19390500    -0.25168564     0.94036025     0.46039579
Ti      0.07074100     6.63800599     1.20556902    -0.56983458     0.17076425    -0.13640016
Ti     -0.02480402     2.75940800     1.20362101     0.43339662    -0.21219991    -0.86003921
Ti      5.51714925     2.81627725     3.78311383     0.92970868     0.68900628     0.16290978
Ti      5.69144325    -0.89633175     3.54342982     0.54084718    -0.78451457     0.82556816
Ti      2.01330422     2.92945022     3.63133484    -0.73352418    -0.75000804     0.74482264
Ti      1.93307724    -0.92794178     3.57687080    -0.70971138     0.60021757    -0.08294742
O       3.87193501     4.69076198     0.72624101    -0.05294495     0.57694625     0.97528047
O       3.71228700     0.99200001     0.68334002    -0.02132782    -0.20800412     1.27014009
O      -0.12403698     4.62679001     0.87590900     0.21796612     1.26062777    -0.13578155
O       0.11361102     0.89607399     0.75204401     0.20011623     0.31952731     0.15269016
O       5.68036122     4.71900925     4.12236179     0.62372723    -0.40548832    -0.71754297
O       5.56924220     0.93335622     4.02718784     0.45361039    -0.39922639     0.27631502
O       1.89851324     4.80437623     4.03020383    -0.63194705    -0.78989024     0.60907271
O       1.82936120     0.99586724     3.94182684     0.08028607    -0.10602951     0.46245576
O       3.78211220     2.91313923     3.39725280     0.02437458    -0.07043257    -1.89174925
O       3.79462121    -1.03908880     3.36589879     0.33420111     0.47308213    -1.49130235
O      -0.01284176    -0.84349578     3.21725581     0.03158344    -0.43356349    -0.44523219
O       5.70963700     6.77663201     1.54707700    -0.87032003    -0.34753254     0.61946486
O       5.84887999     2.69356999     1.81685098    -1.30261879     0.01264572    -0.07851483
O       1.91776000     6.42142898     1.59487800     0.57452736     0.58486114     0.18528070
O       1.80173101     2.95862000     1.72529701     0.54354889    -0.39655450    -0.50586011
