# total energy = -19948.37940584 eV

CRYSTAL
PRIMVEC
        5.62618436     0.00000000     0.00000000
        1.75688721     5.72442395     0.00000000
        0.00000000     0.00000000    10.18743587
PRIMCOORD
24 1
Ti      3.08035093     3.39228836     3.77946605     0.60647564    -2.37637177     0.97714606
Ti      4.30272055     2.33213572     6.40796988    -0.60647564     2.37637177    -0.97714606
Ti      5.56797862     2.33213769     1.31421121    -1.47830516    -0.60962833     0.44802338
Ti      1.81509295     3.39228661     8.87322482     1.47830516     0.60962833    -0.44802338
Ti      2.20190746     0.53007648     1.31425206     0.60647564    -2.37637177    -0.97714606
Ti      5.18116405     5.19434777     8.87318398    -0.60647564     2.37637177     0.97714606
Ti      0.93664936     0.53007434     6.40792903     1.47830516     0.60962833     0.44802338
Ti      6.44642215     5.19434991     3.77950689    -1.47830516    -0.60962833    -0.44802338
O       2.39935270     2.01566703     5.19857055     1.36356347     1.80034727    -0.80545493
O       4.98371879     3.70875711     4.98886538    -1.36356347    -1.80034727     0.80545493
O       1.65103914     2.01569012     0.10488538    -0.16036311    -0.39485397     0.95195361
O       5.73203242     3.70873406    10.08255026     0.16036311     0.39485397    -0.95195361
O       4.10527529     0.84654506     0.10485233    -1.36356347    -1.80034727    -0.80545493
O       3.27779620     4.87787908    10.08258331     1.36356347     1.80034727     0.80545493
O       4.85358892     0.84652201     5.19860360     0.16036311     0.39485397     0.95195361
O       2.52948253     4.87790219     4.98883232    -0.16036311    -0.39485397    -0.95195361
O       1.27305069     3.48191919     2.75188058     0.33919162     1.30683103     1.23258860
O       6.11002080     2.24250494     7.43555534    -0.33919162    -1.30683103    -1.23258860
O       3.70574806     2.24245157     2.34186978     1.07809044     1.01671381     0.20475810
O       3.67732343     3.48197257     7.84556598    -1.07809044    -1.01671381    -0.20475810
O       0.39460713     0.61970715     2.34183724     0.33919162     1.30683103    -1.23258860
O       6.98846430     5.10471699     7.84559852    -0.33919162    -1.30683103     1.23258860
O       2.79887993     0.61976052     7.43558782    -1.07809044    -1.01671381     0.20475810
O       4.58419156     5.10466362     2.75184804     1.07809044     1.01671381    -0.20475810
