# total energy = -19517.11441546 eV

CRYSTAL
PRIMVEC
        5.93400000     0.00000000     0.00000000
        0.00000000     9.29699974     0.00000000
        0.00000000     0.00000000     4.64899994
PRIMCOORD
23 1
Ti      4.60674900     6.93696399     2.34731000    -0.25054767     1.24715699    -0.92163310
Ti      4.40436898     2.31736698     2.35101302     0.94329876    -0.34008303     0.12155486
Ti      1.55404197     7.16725600     2.27196299    -0.91986366     0.30173167    -0.73995811
Ti      1.46816402     2.30171101     2.31039502    -1.29783037    -0.23889208     0.59927012
Ti      2.99128400     4.37917199     0.04293702    -1.07338635     2.57804018    -0.86964254
Ti      3.03054498     0.04139198     4.63908300    -0.72866325    -0.79138508    -0.03524135
Ti      5.91654398     4.64240999     0.06132000     1.27387693     1.14330726     0.11549528
Ti      0.00545598     0.13491998     0.10581201    -0.21737091    -0.75959954    -0.69001852
O       4.42696299     5.52176198     0.89282299    -0.20728447     0.13779087    -0.19858848
O       4.27472499     0.87974998     1.04780202     1.08592819     0.60298485    -1.11968987
O       1.50647000     5.64112802     0.75986001     0.28164106    -0.36001474     0.12346442
O       1.47895701     0.81891201     1.03195501    -0.33253452     0.34285082    -1.04270613
O       4.33004598     8.46838802     3.72514600     0.52749852    -1.13616165    -0.25906625
O       4.49304501     3.70653002     3.73200398    -0.68015397    -0.05172393    -0.85819264
O       1.10572602     8.32636399     3.74231701     2.27334558     0.13747899    -0.27385936
O       1.53029901     3.73039401     3.62493798    -0.00607449     0.39480152     0.37540948
O       2.88586401     1.30182901     3.12113002     0.19339074     0.80938023     1.11218713
O       0.03083198     6.07896599     3.10391398     0.56929002    -1.15545445     0.83384763
O       5.93257001     1.38789201     3.18402898    -0.71997549     0.54349979     0.65979777
O       3.09722200     7.92612999     1.40692303    -1.58825354    -1.02385171     0.71385549
O       2.81705001     3.28841300     1.35451299     1.03998616    -1.66727900     1.56226585
O       5.91551902     7.91208002     1.38815200    -0.18602890     0.02974099    -0.05390808
O       5.87931599     3.23241203     1.27330900     0.01971214    -0.74431870     0.84535666
