# total energy = -19960.85652239 eV

CRYSTAL
PRIMVEC
        5.04793627     0.00000000     0.00000000
        0.26848642     5.36581783     0.00000000
        0.00000000     0.00000000     9.03752103
PRIMCOORD
24 1
Ti      1.98873884     3.17977854     3.35285584     0.35670084    -0.01890456     0.00613363
Ti      3.32768364     2.18603908     5.68466529    -0.35670084     0.01890456    -0.00613363
Ti      4.46290056     2.18604092     1.16586861    -0.43177297    -0.42141913     0.46807567
Ti      0.85352198     3.17977692     7.87165262     0.43177297     0.42141913    -0.46807567
Ti      1.85449574     0.49686983     1.16590483     0.35721429    -0.02905553    -0.00633109
Ti      3.46192674     4.86894795     7.87161641    -0.35721429     0.02905553     0.00633109
Ti      0.71927887     0.49686784     5.68462902     0.43195783     0.40939434     0.46877090
Ti      4.59714366     4.86894994     3.35289211    -0.43195783    -0.40939434    -0.46877090
O       1.69224225     1.88939559     4.61177780    -0.39385895    -0.26700685    -0.17582907
O       3.62418023     3.47642203     4.42574333     0.39385895     0.26700685     0.17582907
O       1.02083363     1.88941725     0.09304634     0.49473597    -0.52162329     0.07069534
O       4.29558890     3.47640043     8.94447453    -0.49473597     0.52162329    -0.07069534
O       3.48993712     0.79351317     0.09301703     0.39376742     0.26656873    -0.17520712
O       1.82648536     4.57230446     8.94450384    -0.39376742    -0.26656873     0.17520712
O       4.16134580     0.79349157     4.61180716    -0.49526150     0.52195290     0.07070922
O       1.15507663     4.57232617     4.42571397     0.49526150    -0.52195290    -0.07070922
O       0.34671185     3.26379446     2.44125994    -0.29511210    -0.00452052    -0.27320552
O       4.96971068     2.10202317     6.59626124     0.29511210     0.00452052     0.27320552
O       2.81255652     2.10197317     2.07752937     0.01972268    -0.22433320    -0.09803029
O       2.50386601     3.26384445     6.95999161    -0.01972268     0.22433320     0.09803029
O       0.21246875     0.58088559     2.07750052    -0.29536716    -0.00476991     0.27300215
O       5.10395379     4.78493203     6.96002045     0.29536716     0.00476991    -0.27300215
O       2.36962291     0.58093559     6.59629003    -0.02008367     0.22466436    -0.09748984
O       2.94679962     4.78488204     2.44123104     0.02008367    -0.22466436     0.09748984
