# total energy = -19961.03296244 eV

CRYSTAL
PRIMVEC
        7.60600008     0.00000000     0.00000000
        0.00000000     7.60600008     0.00000000
       -1.89786986    -1.89786986     4.85670466
PRIMCOORD
24 1
Ti      3.75967498     6.60191800     1.25200099     0.37121138    -1.51951122     0.12099719
Ti      3.75806998     2.75918702     1.18236798     0.77350870     1.27183599     1.41008451
Ti      0.05847102     6.71687398     1.29791500    -0.22550229     0.03789139    -0.95717887
Ti      0.02865098     2.93282801     1.12446800    -0.94208443     0.21545030     0.09362958
Ti      5.70623121     3.02500423     3.62072584    -0.65989213    -0.07691844    -0.63112918
Ti      5.73575623    -0.87581777     3.63661682    -0.88056356    -0.25040960    -0.45924702
Ti      1.78538821     2.76021822     3.64812881     0.86371229     0.58951766     0.30124881
Ti      1.85841425    -1.04798480     3.73840782     1.22694271    -0.56131599    -1.55671972
O       3.74937899     4.62191501     0.70679702    -0.41763113     0.84136811     0.84622056
O       3.76545301     0.84691199     0.75863099    -0.10969307     0.48209873     1.54020321
O       0.18880298     4.88031300     0.75320200    -0.78723043    -1.20542565    -0.33995061
O       0.14342201     0.96590501     0.80461401    -0.75240585     0.99789744    -0.55921514
O       5.91958320     4.91209724     4.01401180    -0.35800594    -1.17119346     0.31067242
O       5.76628124     1.07932823     3.85969482    -0.50067779    -1.08781718     1.63836359
O       1.77933220     4.68793125     4.10437982    -0.09702164    -0.32282809    -0.07595299
O       1.96683521     0.88547023     4.11460882    -0.12557632    -0.51080974    -1.02533601
O       3.80134224     2.87306723     3.16960779    -0.53370439     0.09982569     0.25032115
O       3.76802524    -1.25944678     3.23326379     0.83889291     1.24198264     0.18965287
O      -0.03986176     2.89458421     3.14055580    -0.04237128    -0.07347419     0.11030808
O       0.03873323    -0.81226178     3.22295780    -0.62913709     0.04122868    -0.09469736
O       5.68458702     6.56362102     1.55913700     0.53405355     0.44368618     0.73284258
O       5.66158601     2.98724299     1.59753802     0.64403278    -0.42680585    -0.42213981
O       1.91712599     6.46001198     1.71309302    -0.12796359     0.78969123    -0.28306468
O       1.76864600     2.74934501     1.69574501     1.93710635     0.15403588    -1.13991341
