# total energy = -4981.75499923 eV

CRYSTAL
PRIMVEC
        3.77971925     0.00000000     0.00000000
        0.00000000     2.53810857     0.00000000
        0.00000000    -0.00008134     5.03593008
PRIMCOORD
6 1
Ti      1.88985962     1.26901357     2.51796494     0.00000000     0.00000000     0.00000000
Ti      0.00000000     0.00000000     0.00000000     0.00000000     0.00000000     0.00000000
O       1.88985962     0.49462412     0.98142858     0.00000000    -2.51893744    -2.29285357
O       1.88985962     2.04340306     4.05450130     0.00000000     2.51893744     2.29285357
O       0.00000000     0.77435719     3.49939449    -0.00000000     2.51830058    -2.29211618
O       0.00000000     1.76366994     1.53653535    -0.00000000    -2.51830058     2.29211618
