# total energy = -19960.54847973 eV

CRYSTAL
PRIMVEC
        5.93400000     0.00000000     0.00000000
        0.00000000     9.29699974     0.00000000
        0.00000000     0.00000000     4.64899994
PRIMCOORD
24 1
Ti      4.40541701     6.96934000     2.33095302     1.97771540     0.40058445    -0.38571164
Ti      4.47132202     2.42219101     2.30012898    -1.21365576    -0.26862613     0.06341140
Ti      1.51798500     6.97558498     2.29225800    -2.16307349     0.63077257    -0.12451626
Ti      1.48678201     2.26713203     2.42263499     1.29711637    -0.04531108    -0.28125282
Ti      2.94986101     4.67233597     0.01859201    -0.45930770    -1.62900966    -0.13903451
Ti      2.96832898     9.23843602     0.07691401    -1.07676272     1.89455946    -0.58829767
Ti      5.92478798     4.66538798     0.01865001     0.47205703    -0.95496309    -0.30451077
Ti      5.88000699     0.04409401     4.59205201     0.72054601    -0.09384736     0.80018802
O       4.44365499     5.57911998     0.79626999    -0.09625211     0.18476803     0.43672080
O       4.43202298     0.85957499     0.91675699     0.53246538     0.52606384     0.48306470
O       1.53608302     5.54386699     0.82557699    -0.10561530     0.62629757     0.08775281
O       1.54390400     0.82334598     1.00238898    -1.06430289     0.31276530    -0.11468333
O       4.33616798     8.43801399     3.70607901     1.24698987    -1.30819809    -1.21542134
O       4.52188501     3.68752600     3.78281500    -0.10903590     0.67356012     0.02746813
O       1.40459697     8.43694098     3.78844502     0.64853145    -0.92963129    -1.60751677
O       1.51791901     3.66670901     3.76590800     0.02376060     0.93112921     0.70577656
O       2.86399602     5.97629698     3.09013198     1.25984539     0.34465214     0.28307162
O       3.09274199     1.48472102     3.24139100    -0.37844904    -0.28362004     0.12050045
O       0.07486699     6.00874899     3.06358199    -0.94870039     0.16515487     0.84153240
O       0.03124300     1.51942902     3.34424898    -0.67563011    -0.88594643    -0.26321010
O       2.98697200     7.88504398     1.33330299     0.18445821    -1.39702793     1.32893147
O       2.90554898     3.21261799     1.44001100     1.30028654     0.74019748    -0.48703911
O       5.89716202     7.72380700     1.22365100    -0.37589928     0.48879672     1.23912872
O       0.13214302     3.33338698     1.53030102    -0.99708729    -0.12312118    -0.90635251
