# total energy = -19518.47163500 eV

CRYSTAL
PRIMVEC
        7.60600008     0.00000000     0.00000000
        0.00000000     7.60600008     0.00000000
       -1.89786986    -1.89786986     4.85670466
PRIMCOORD
23 1
Ti      3.92061900     6.65291402     1.19883598    -0.34008560    -0.65672555     0.07468235
Ti      3.81844101     2.85139700     1.23089999    -0.78668098     1.24795609    -0.00995249
Ti      0.08348401     6.63683698     1.24171902    -0.20744825    -1.35516496    -0.61673332
Ti     -0.01652398     2.72825798     1.11009301     0.85972657     1.94947439    -0.00598090
Ti      5.49312021     2.82147123     3.63841682     0.73357920     0.55396264     2.20179766
Ti      5.66103720    -1.02754580     3.58556280     0.05368003     0.17806542     0.08975005
Ti      1.88267925     2.89833121     3.59154679     0.33726330    -0.53794877     2.45274874
Ti      1.87310823    -0.92542676     3.64978481     0.04595849     0.64133492    -0.38331074
O       3.98547999     4.74668400     0.78992400    -0.76554368    -0.09597906     0.28368971
O       4.05704301     1.08348698     0.77218402    -0.02756558    -1.05860712     0.33979018
O       0.18807002     4.66547498     0.69620199     0.00640102     1.61437802     0.59094103
O      -0.22186502     0.92207199     0.77876799     0.49423383    -0.26302935     0.22801837
O       5.61540323     4.77408025     4.13313283     0.13699665    -0.26276607    -0.42808369
O       5.68440625     1.00141122     4.06417082     0.13288109    -1.79394419    -1.23237880
O       1.97003721     4.77808924     4.11211883    -0.69642880     0.19311383    -0.58314287
O       1.59639124     0.98820724     4.04864280     0.20742485     0.50578349    -0.02764168
O       3.73638520     2.91241521     3.26082181    -0.15490028    -0.52966159    -0.66937564
O       3.73208124    -0.72009377     3.17818580     1.22201442    -0.42050408    -0.10679338
O      -0.05369980    -1.06860376     3.32014781     0.62791993     0.28697173    -0.56407865
O       5.79081401     6.48631701     1.55749401    -0.97470017     0.40655404     1.13544200
O       5.96656599     3.18974002     1.92286502    -0.34771561    -0.81984103    -1.19631520
O       1.94421600     6.58591298     1.59417700    -0.42564551     0.51874391     0.29976554
O       1.81563202     2.84819701     1.76389102    -0.13136491    -0.30216721    -1.87283877
