# total energy = -19518.92714670 eV

CRYSTAL
PRIMVEC
        7.60600008     0.00000000     0.00000000
        0.00000000     7.60600008     0.00000000
       -1.89786986    -1.89786986     4.85670466
PRIMCOORD
23 1
Ti      3.80528302     6.67018600     1.20899798     0.29634032    -0.21879042     0.71528322
Ti      3.83621401     2.88942198     1.16907198     0.70306585    -0.02050507     1.78139309
Ti      0.01716598     6.64428499     1.19597101    -0.64120611    -0.86026830     0.21836182
Ti      0.02304101     2.79268801     1.08039198    -1.53527852     0.73895409    -0.60993840
Ti      5.70061924     2.91264625     3.65013984    -1.16631633    -1.63590896     0.41723081
Ti      5.73667520    -1.02182878     3.62653583    -1.10895526     1.26223497    -0.82754020
Ti      2.03357621     2.89578825     3.65282081     0.93218028    -0.36903263     1.68096113
Ti      1.84156324    -0.89117878     3.66780282     0.89837617    -0.02061357    -0.22093395
O       3.78176199     4.69733499     0.90802498    -0.34525275     1.29356465     0.00716387
O       3.65986601     1.06312202     0.78630199     0.25820827    -1.79463556    -0.47201486
O      -0.21170202     4.74163602     0.74258099     1.21405171     0.07088071     0.19320562
O      -0.15973998     0.88861201     0.83191998     0.45814993     0.19722451    -0.73090628
O       5.69419920     4.74398721     3.94988679     0.43057406     0.13554321     0.72142662
O       5.86585621     0.94934822     4.02805479     0.39908215    -0.24202497     0.21961831
O       1.95340622     4.73335720     4.10101880    -0.34599862     0.91829169    -0.20924699
O       1.71465822     1.06703221     4.11183281    -0.16136841    -1.19495252    -0.51406193
O       3.82323425     2.62196823     3.26380081     0.00369365     0.76046806    -0.33530566
O       3.83083625    -0.79389875     3.21635980    -0.95155818    -0.13046836     0.08387482
O      -0.01483279    -0.93894079     3.18998582     0.50436732    -0.21452419     0.05782465
O       5.67301301     6.49550601     1.59236700     0.01083566     0.72110112     0.39666146
O       5.81419702     2.87711602     1.75720900    -0.12357446    -0.26740151    -1.07990847
O       1.87058998     6.53707500     1.58266501     0.07424243     0.37071388     0.35221015
O       1.67935199     2.74489600     1.91613802     0.19634082     0.50014917    -1.84535856
