# total energy = -4985.39447258 eV

CRYSTAL
PRIMVEC
        3.25385178     0.00000000     0.00000000
        2.18368512     4.60696883     0.00000000
       -0.00001427    -0.00006851     5.23918293
PRIMCOORD
6 1
Ti      2.71876121     2.30345019     2.61959135     0.00000000     0.00000000     0.00000000
Ti      0.00000000     0.00000000     0.00000000     0.00000000     0.00000000     0.00000000
O       2.05249110     0.89781708     1.02103956    -0.31476588     0.58537510     0.08722239
O       3.38503126     3.70908331     4.21814314     0.31476588    -0.58537510    -0.08722239
O       0.66626414     1.40560546     3.64063199     0.31463912    -0.58496475     0.08733295
O       1.51740658     3.20129478     1.59855071    -0.31463912     0.58496475    -0.08733295
