# total energy = -19916.84892974 eV

CRYSTAL
PRIMVEC
        6.41993947     0.00000000     0.00000000
        0.34145965     6.82421960     0.00000000
        0.00000000     0.00000000    11.49387290
PRIMCOORD
24 1
Ti      2.52926786     4.04402605     4.26414486    -0.01931748    -1.13675892     0.67790580
Ti      4.23213099     2.78019330     7.22972816     0.01931748     1.13675892    -0.67790580
Ti      5.67589404     2.78019563     1.48274572     0.10995944     0.65402744    -0.58043344
Ti      1.08550488     4.04402398    10.01112744    -0.10995944    -0.65402744     0.58043344
Ti      2.35853817     0.63191651     1.48279178    -0.01931748    -1.13675892    -0.67790580
Ti      4.40286068     6.19230303    10.01108138     0.01931748     1.13675892     0.67790580
Ti      0.91477518     0.63191398     7.22968203    -0.10995944    -0.65402744    -0.58043344
Ti      5.84662374     6.19230556     4.26419099     0.10995944     0.65402744     0.58043344
O       2.15218502     2.40292363     5.86523536     1.51875531     1.48952906    -0.14192803
O       4.60921383     4.42129572     5.62863767    -1.51875531    -1.48952906     0.14192803
O       1.29829097     2.40295117     0.11833586    -1.30305382     1.11484848     0.16745678
O       5.46310794     4.42126824    11.37553684     1.30305382    -1.11484848    -0.16745678
O       4.43848413     1.00918598     0.11829859    -1.51875531    -1.48952906    -0.14192803
O       2.32291471     5.81503336    11.37557411     1.51875531     1.48952906     0.14192803
O       5.29237825     1.00915850     5.86527270     1.30305382    -1.11484848     0.16745678
O       1.46902054     5.81506097     5.62860033    -1.30305382     1.11484848    -0.16745678
O       0.44094635     4.15087706     3.10478187     0.48567668     0.06520629     0.59766266
O       6.32045256     2.67334229     8.38909122    -0.48567668    -0.06520629    -0.59766266
O       3.57699496     2.67327870     2.64219119     0.52001738     0.61879534    -0.07874341
O       3.18440395     4.15094064     8.85168164    -0.52001738    -0.61879534     0.07874341
O       0.27021666     0.73876732     2.64215451     0.48567668     0.06520629    -0.59766266
O       6.49118225     6.08545202     8.85171832    -0.48567668    -0.06520629     0.59766266
O       3.01367426     0.73883090     8.38912784    -0.52001738    -0.61879534    -0.07874341
O       3.74772465     6.08538844     3.10474512     0.52001738     0.61879534     0.07874341
