# total energy = -19068.74385007 eV

CRYSTAL
PRIMVEC
        5.17600016     0.00000000     0.00000000
        0.00000000     5.50899976     0.00000000
        0.00000000     0.00000000     9.26300011
PRIMCOORD
22 1
Ti      1.59956000     3.63908300     3.50142500     0.76308133    -2.00967962    -0.83851676
Ti      3.56779102     2.61347801     6.18281301     1.71048846    -1.59069352    -1.37633800
Ti      4.32924200     2.13226898     1.34833099     0.90605683     2.33060921     1.38456091
Ti      1.24530901     2.05972301     7.92889002     0.61980887     0.54192884     3.11979316
Ti      1.78858598     0.66217002     1.26975002    -0.86278644     0.06471366    -1.20832715
Ti      3.46635499     5.32672302     8.07288100    -1.18464882    -0.66833692     0.03124843
Ti      0.60907502     5.31486802     6.05204802     0.05642288     1.33141438     1.10657030
Ti      4.24312898     5.25619898     3.41805402    -0.39191211     0.66556038     1.37068131
O       3.30951400     3.57800901     4.57115998    -0.38863267     0.57832616     0.30816380
O       0.79915798     2.35235200     0.53088702     1.14861402    -0.17210894    -2.61605113
O       0.32249998     3.09148699     6.95482901    -4.32203424     4.46677352    -2.72687034
O       3.58513798     0.78892501     0.36728600     0.90160497    -0.63167837    -0.73686507
O       1.62797698     0.10058702     8.59466898    -1.47328971     0.51447331     0.38176808
O       4.39165200     1.12177401     4.79258103    -0.90454631    -1.05217371    -1.38316248
O       0.81883702     5.10792098     4.27381798     0.96105044    -1.40074549     0.23623125
O       0.09746402     3.64320899     2.36595799    -2.01200775     0.46603602     1.41930784
O       4.50296401     0.85740097     6.98212201     0.02523564     0.36905371     2.09650992
O       2.68302899     1.85026598     2.29526801     0.02995491     1.90622970     1.99923682
O       2.67944900     3.77093698     7.38365298    -0.05528439    -1.56867202     0.29383478
O       0.14128001     0.94434199     2.22345400    -0.38283612    -2.36974270     1.63851323
O       1.84721802     1.38457100     6.41379099     2.49308962    -2.44308087    -3.58901658
O       2.36132198     4.72798002     2.34188498     2.36257060     0.67179300    -0.91127283
