# total energy = -19914.31844215 eV

CRYSTAL
PRIMVEC
        8.00041949     0.00000000     0.00000000
        0.00002678     4.09975012     0.00000000
        0.00000000     0.00000000    12.08736254
PRIMCOORD
24 1
Ti      2.89978327     2.42950820     4.48432529     0.21313862    -0.19971951     2.58757872
Ti      5.10066319     1.67024210     7.60303737    -0.21313862     0.19971951    -2.58757872
Ti      6.89985607     1.67024356     1.55930775     0.21360990     0.20024247    -2.58834105
Ti      1.10059045     2.42950693    10.52805510    -0.21360990    -0.20024247     2.58834105
Ti      2.89976994     0.37963320     1.55935622     0.21313862    -0.19971951    -2.58757872
Ti      5.10067658     3.72011722    10.52800662    -0.21313862     0.19971951     2.58757872
Ti      1.10057706     0.37963163     7.60298890    -0.21360990    -0.20024247    -2.58834105
Ti      6.89986940     3.72011880     4.48437377     0.21360990     0.20024247     2.58834105
O       2.53219281     1.44359177     6.16808859     1.59971116     0.97466572    -1.78722101
O       5.46825371     2.65615853     5.91927407    -1.59971116    -0.97466572     1.78722101
O       1.46808278     1.44360827     0.12444616    -1.59977312     0.97390776    -1.78677158
O       6.53236379     2.65614204    11.96291614     1.59977312    -0.97390776     1.78677158
O       5.46824032     0.60628347     0.12440696    -1.59971116    -0.97466572    -1.78722101
O       2.53220614     3.49346683    11.96295540     1.59971116     0.97466572     1.78722101
O       6.53235046     0.60626697     6.16812780     1.59977312    -0.97390776    -1.78677158
O       1.46809593     3.49348339     5.91923487    -1.59977312     0.97390776     1.78677158
O       0.29069015     2.49370047     3.26509817    -1.97287015     0.62175134     0.26630699
O       7.70975631     1.60604990     8.82226450     1.97287015    -0.62175134    -0.26630699
O       4.29090991     1.60601163     2.77862158    -1.97328178    -0.62191923    -0.26606171
O       3.70953655     2.49373874     9.30874090     1.97328178     0.62191923     0.26606171
O       0.29067682     0.44382534     2.77858298    -1.97287015     0.62175134    -0.26630699
O       7.70976970     3.65592496     9.30877950     1.97287015    -0.62175134     0.26630699
O       3.70952322     0.44386361     8.82230303     1.97328178     0.62191923    -0.26606171
O       4.29092330     3.65588669     3.26505957    -1.97328178    -0.62191923     0.26606171
