# total energy = -19519.02585672 eV

CRYSTAL
PRIMVEC
        7.60600008     0.00000000     0.00000000
        0.00000000     7.60600008     0.00000000
       -1.89786986    -1.89786986     4.85670466
PRIMCOORD
23 1
Ti      3.81711500     6.73082701     1.15352200     0.41080973    -0.95036133     0.03878819
Ti      3.71416801     2.82338601     1.21184702     0.83870110     1.43964475     1.13120045
Ti      0.05728502     6.66315900     1.22742600    -0.52593914    -1.19743621    -0.65347825
Ti      0.05978100     2.76389902     1.15193701    -1.34865492     1.36885609    -0.41906837
Ti      5.58800921     2.87133523     3.63802782     0.55550633     0.10998412     0.52838092
Ti      5.69361621    -0.97583476     3.59816881    -0.06163425    -0.48989586    -0.47242033
Ti      1.96250220     2.84734720     3.70876982     0.45131439     0.43716997     2.36993013
Ti      1.90743321    -0.90016675     3.59429179     0.01015509    -0.51983637    -0.06107915
O       3.71714500     4.73524203     0.80578201    -0.11542483     0.07462553     0.54755544
O       3.97097799     1.05655101     0.84872400    -0.27339501    -1.28726981    -0.67718691
O       0.14984501     4.74837599     0.72006101     0.20395772     0.19239906     1.00812735
O      -0.10630298     0.94356802     0.73395101     0.26657285    -0.34141589     0.45263080
O       5.65750224     4.71649825     4.00523883     0.45448353     0.83595542     0.46310316
O       5.77839220     0.95807224     4.06658281     0.16002423    -0.83798711    -0.63694219
O       1.92342124     4.73731322     4.04666680    -0.38359536     0.61992997     0.36774579
O       1.63529222     0.95259324     4.07761382     0.07267303    -0.15115495    -0.02235755
O       3.82026424     2.86587423     3.36248581    -1.34041376    -0.50038777    -0.72740366
O       3.72851924    -1.10332578     3.16739281     0.73893661     0.81744810     0.20160799
O       0.01102721    -1.17130479     3.20114479     0.40866183     0.65559581    -0.18564966
O       5.73285401     6.59568302     1.65164401    -0.35931514     0.31847444    -0.30472957
O       5.77628899     2.87067000     1.76290400     0.80891075     0.06937507    -0.90167104
O       1.95252700     6.90112498     1.51929202    -0.80690195    -0.20464163     0.79722997
O       1.80805198     2.82483299     1.91214400    -0.16543358    -0.45907115    -2.84431375
