# total energy = -19070.69881949 eV

CRYSTAL
PRIMVEC
        5.93400000     0.00000000     0.00000000
        0.00000000     9.29699974     0.00000000
        0.00000000     0.00000000     4.64899994
PRIMCOORD
22 1
Ti      4.42846199     6.90648898     2.51010900     0.74952416    -2.02052891    -0.41352790
Ti      4.43646400     2.48922200     2.22009499    -2.75093074    -1.36298986     0.90590899
Ti      1.70077399     7.27549000     2.30160099    -1.10122960    -2.30338764     1.54350502
Ti      1.60882500     2.31200102     1.85401398    -1.42298683    -0.81794638     2.50245795
Ti      2.95410803     4.57170101     0.29136103    -0.04327528     1.10764734    -1.88496796
Ti      3.10146500     0.16186098     4.45588200    -1.54924578     0.91720026     0.78637091
Ti      5.74507600     4.69529401     4.48983200     1.88114653     1.47945830     1.01450395
Ti      5.85308600     8.93694098     0.20622302     0.41782679     3.21158543    -3.00982241
O       4.43587201     5.04016999     1.43880098    -0.97710055     2.41585236    -1.03289891
O       4.43855298     0.76912902     1.00569898     1.18603336     0.93551372    -0.52257305
O       1.52341801     0.72050001     1.09127599    -1.68376081    -0.13691978    -1.72346045
O       4.27166201     8.51520899     3.44605797     1.67608915    -0.21911361     0.82600833
O       4.34449098     3.80166498     3.91208797    -0.93565873    -1.40489757    -2.37908223
O       1.36474601     8.53647398     3.46940501     0.09377408     2.17187875     2.46636196
O       1.27183497     3.73937701     4.11636600     1.00095063    -0.01173555     0.14303978
O       2.85919098     6.03027200     3.30296802     0.58695247     0.55938689     0.08434996
O       2.91534399     1.62659001     3.17360001    -0.61781832    -0.41625199     0.75738119
O       0.27455197     6.20847398     3.44362498    -2.35500770    -0.44512626     0.09870314
O       2.93507998     7.96334602     1.22471597     1.40772810    -1.42661440    -0.64603490
O       3.03788499     2.79324201     0.99182401     1.49621342     1.65856630    -0.38967808
O       0.02391601     7.90019401     1.47673299    -0.66159368    -3.46181557     1.53509828
O       5.87221702     3.27894999     1.73573001     3.60236909    -0.42976211    -0.66164382
