# total energy = -19073.59782162 eV

CRYSTAL
PRIMVEC
        5.93400000     0.00000000     0.00000000
        0.00000000     9.29699974     0.00000000
        0.00000000     0.00000000     4.64899994
PRIMCOORD
22 1
Ti      4.44930300     6.96773099     2.37265600    -0.42502614    -0.09016271     0.42602835
Ti      4.38277902     2.37796100     2.12873402     0.42422061    -1.19398116     1.65961325
Ti      1.51239901     7.20323000     2.52372002     0.12163482    -0.09857690     0.24388954
Ti      1.61030299     2.47229002     2.14325999    -0.56979987    -0.50540091     0.44715949
Ti      3.02865502     4.56696498     4.44387401    -0.52074320     0.63307371     0.17142940
Ti      2.97833900     0.12614199     0.18070599     0.45535694    -0.13792302    -1.32350670
Ti      5.79847602     4.56144302     4.49612498     0.62084425     0.48554041     0.00526408
Ti      5.92001099     9.18883602     0.21445300    -0.50997490    -0.58915797    -0.27202590
O       4.37177298     5.47763998     0.81979298     0.00434259    -0.08413681     1.06773994
O       4.47934101     0.61819698     1.24863198     0.38698357     1.58001444    -0.46604810
O       1.54055198     0.61291399     1.28472901    -1.09737706     1.59450493    -0.84257473
O       4.44525898     8.34891398     3.86847398     0.41338958     1.04647743     0.03931861
O       4.41922198     3.99191198     3.32753402     0.23917567    -1.96133849    -0.65870376
O       1.52797698     8.24163801     3.95565900    -0.26109511     1.91617011     0.50084311
O       1.45037001     3.78541501     3.42625801    -0.27185672     0.40832887     0.51247222
O       2.89706002     6.12285802     3.27688202    -0.23706506    -0.73211418    -0.09969148
O       3.02056898     1.46757399     3.38130298     0.17410077     0.25272745    -0.27574783
O       5.88145000     6.24558698     3.47744798     0.75279717    -1.24041890    -0.74898603
O       2.96311298     7.95621800     1.54582798     0.05059522    -1.73302676     0.15200213
O       3.07535502     2.86374900     1.03542102    -0.58267184     1.95433146    -1.27539954
O       5.87020599     7.95119399     1.50861798     0.71140008    -2.17849215     0.78543631
O       0.00329598     2.89392200     1.15049601     0.12076862     0.67356140    -0.04851262
