# total energy = -19959.98574669 eV

CRYSTAL
PRIMVEC
        5.16433950     0.00000000     0.00000000
        0.81987909     5.43492583     0.00000000
        0.00000000     0.00000000     9.26928138
PRIMCOORD
24 1
Ti      2.35768425     3.22073196     3.43883731     0.79782492    -0.93612152     0.57663618
Ti      3.62653428     2.21419372     5.83044428    -0.79782492     0.93612152    -0.57663618
Ti      4.78792899     2.21419555     1.19576642    -1.22698822    -0.47467698     0.66003662
Ti      1.19628955     3.22073033     8.07351528     1.22698822     0.47467698    -0.66003662
Ti      1.94774482     0.50326914     1.19580359     0.79782492    -0.93612152    -0.57663618
Ti      4.03647372     4.93165669     8.07347810    -0.79782492     0.93612152     0.57663618
Ti      0.78635010     0.50326715     5.83040711     1.22698822     0.47467698     0.66003662
Ti      5.19786844     4.93165869     3.43887448    -1.22698822    -0.47467698    -0.66003662
O       1.92323940     1.91372971     4.73004338     0.13943920     0.44058003    -0.45204098
O       4.06097913     3.52119597     4.53923815    -0.13943920    -0.44058003     0.45204098
O       1.23635055     1.91375168     0.09543244     0.26006975    -0.43076253     0.31870481
O       4.74786803     3.52117404     9.17384888    -0.26006975     0.43076253    -0.31870481
O       3.65103968     0.80373299     0.09540238    -0.13943920    -0.44058003    -0.45204098
O       2.33317885     4.63119269     9.17387895     0.13943920     0.44058003     0.45204098
O       4.33792859     0.80371107     4.73007350    -0.26006975     0.43076253     0.31870481
O       1.64628989     4.63121466     4.53920809     0.26006975    -0.43076253    -0.31870481
O       0.68632933     3.30582997     2.50386419    -0.22249898     0.01454294    -0.18706531
O       5.29788920     2.12909565     6.76541739     0.22249898    -0.01454294     0.18706531
O       3.09098686     2.12904511     2.13080609     0.56993331    -0.16461031    -0.42242084
O       2.89323167     3.30588052     7.13847534    -0.56993331     0.16461031     0.42242084
O       0.27638988     0.58836700     2.13077644    -0.22249898     0.01454294     0.18706531
O       5.70782864     4.84655863     7.13850493     0.22249898    -0.01454294    -0.18706531
O       2.48329223     0.58841754     6.76544693    -0.56993331     0.16461031    -0.42242084
O       3.50092630     4.84650808     2.50383460     0.56993331    -0.16461031     0.42242084
