# total energy = -19517.70493773 eV

CRYSTAL
PRIMVEC
        5.17600016     0.00000000     0.00000000
        0.00000000     5.50899976     0.00000000
        0.00000000     0.00000000     9.26300011
PRIMCOORD
23 1
Ti      1.82041001     3.16547698     3.40086798    -0.45848983    -0.00392068     2.63446589
Ti      3.39573999     2.19899098     5.88172099    -0.57623328     0.98047950    -2.97343357
Ti      4.31262599     2.09566097     1.42564299     1.24718913    -0.07730333    -0.33082937
Ti      0.91381503     3.36996297     7.76540298     0.56104834     0.28185960     0.75814096
Ti      1.92223901     0.26658299     1.36244801    -0.17754348    -0.43519022    -1.13807970
Ti      3.38532599     5.19996998     7.91939102    -2.10801664     0.89306196     0.77675266
Ti      0.72573601     0.58122802     5.91383099     0.06957228    -0.41809984    -3.21372742
Ti      4.46557901     4.97980399     3.37837102     0.65646227    -0.74188566     3.04648764
O       1.70409902     1.90656298     4.76329800    -0.90567117    -0.44793390     0.46001809
O       3.46172501     3.52204301     4.56837498     0.49672934     0.41354076    -0.66323379
O       0.29497398     2.66661899     0.02345700    -0.57631530    -0.49649846     0.38721496
O       3.41684601     0.90546302     0.25485399     0.11985922    -0.83681546    -1.54356390
O       1.70720302     4.80820303     8.95899402     0.36282881    -0.08629602     0.84481442
O       4.25118200     0.76599598     4.78833200    -0.29224069     0.21674408    -0.18304744
O       0.91345598     4.74350100     4.39955098     0.19623824    -0.21308488     0.73301278
O       0.08436900     3.34337399     2.54364402     0.11352299     0.02459750    -0.16133755
O       5.03468401     2.07669600     6.76592998     0.40730352     0.32589747     0.67892421
O       2.57703198     1.80858300     2.26954603     0.06469798     1.17321743     0.06356232
O       2.72832799     3.59962500     7.05085801    -0.73149918    -0.47767541     1.02689076
O       0.11471700     0.62367799     2.09254301     0.60173067     0.16959980    -0.72194341
O       5.02004099     4.80277002     7.12061998     0.67169966    -0.17161991     0.24138991
O       2.38295099     0.88260500     6.88965199     0.11547883    -0.46344769     0.79800644
O       2.77523802     4.57249600     2.46835802     0.14164881     0.39077337    -1.52048490
