# total energy = -19076.32356840 eV

CRYSTAL
PRIMVEC
        7.60600008     0.00000000     0.00000000
        0.00000000     7.60600008     0.00000000
       -1.89786986    -1.89786986     4.85670466
PRIMCOORD
22 1
Ti      3.82644000     6.60203500     1.23361700     0.82701081     0.96922423    -0.21412952
Ti      3.66284702     2.82910599     1.21133298     1.22081191    -0.12516495    -0.07671352
Ti      0.23243100     6.67996900     1.01269301    -1.73854409    -0.63152771     0.43301558
Ti     -0.00452902     2.80891698     1.16682398    -1.47066564     0.40208289     0.06079196
Ti      5.65256121     2.79597923     3.52822179     0.51493893     0.05044301     0.25620718
Ti      6.13218524    -0.83858978     3.60437580    -0.96445175    -0.89787172    -0.12516186
Ti      1.89250025     2.89120224     3.70731982    -0.51601648    -1.26306055    -0.67198197
Ti      1.41795923    -0.98858576     3.85249182     1.08293903     1.65380873    -0.56078738
O       3.77949002     4.75540198     0.78203603    -0.32738769     0.58756028     0.75744367
O       3.88916698     0.96078199     0.92822902    -0.85504536    -0.23912965     0.18551339
O       0.09884798     4.64305199     0.64525302     0.06352787     1.30238996     0.47343077
O      -0.11491698     0.92570199     0.67116900     0.64643702     0.47619394     0.59169642
O       5.79447025     4.77936123     4.01065883     0.35418399     0.16676027    -1.33085645
O       5.43118922     0.92370424     3.90862181     1.08822444    -0.92319633     0.11539835
O       1.99327121     4.83959922     4.17542584    -0.55177437    -0.58658095    -0.49230422
O       1.95596321     0.95135523     4.09303680    -0.78914487    -0.97706919     0.27148957
O       3.73943220     2.81493123     3.28409280    -0.12487930     0.63578777    -0.71668730
O       0.00613020     2.64655121     3.18336380    -0.04147191     0.51442445     0.10677127
O       5.74785899     6.61250499     1.74839502    -0.16350525    -0.12668190     0.22634484
O       5.70642299     2.95926301     1.59502802    -0.51892980    -0.16098763     0.33211903
O       1.87265801     6.76403198     1.89959800     0.96424040    -0.61908356     0.34584384
O       1.81903299     2.94393301     1.64400301     1.29950287    -0.20832191     0.03255609
