# total energy = -19873.82638976 eV

CRYSTAL
PRIMVEC
        9.74335409     0.00000000     0.00000000
        0.00003029     3.45662506     0.00000000
        0.00000000     0.00000000    15.50085456
PRIMCOORD
24 1
Ti      3.53151495     2.04839269     5.75070662     0.26915166     0.03825572     1.95296209
Ti      6.21186903     1.40823204     9.75014841    -0.26915166    -0.03825572    -1.95296209
Ti      8.40302580     1.40823315     1.99965897     0.26912107    -0.03702236    -1.95524292
Ti      1.34035825     2.04839171    13.50119620    -0.26912107     0.03702236     1.95524292
Ti      3.53150020     0.32008023     1.99972113     0.26984818     0.03717302    -1.95481663
Ti      6.21188384     3.13654463    13.50113403    -0.26984818    -0.03717302     1.95481663
Ti      1.34034344     0.32007905     9.75008625    -0.26883722     0.03811096    -1.95389026
Ti      8.40304061     3.13654581     5.75076878     0.26883722    -0.03811096     1.95389026
O       3.08384360     1.21713634     7.90996762     0.44855765     0.53549285    -2.09208119
O       6.65954045     2.23948846     7.59088741    -0.44855765    -0.53549285     2.09208119
O       1.78791144     1.21715037     0.15959001    -0.44870832     0.53550365    -2.09247406
O       7.95547267     2.23947442    15.34126455     0.44870832    -0.53550365     2.09247406
O       6.65952563     0.51117586     0.15953967    -0.44885513    -0.53534810    -2.09173667
O       3.08385842     2.94544887    15.34131489     0.44885513     0.53534810     2.09173667
O       7.95545786     0.51116189     7.91001789     0.44825349    -0.53545866    -2.09230359
O       1.78792606     2.94546290     7.59083714    -0.44825349     0.53545866     2.09230359
O       0.35401678     2.10251530     4.18716760    -1.55481119     0.53350925     0.42036781
O       9.38936727     1.35410943    11.31368736     1.55481119    -0.53350925    -0.42036781
O       5.22570670     1.35407739     3.56330915    -1.55433940    -0.53340846    -0.42098693
O       4.51767734     2.10254741    11.93754561     1.55433940     0.53340846     0.42098693
O       0.35400196     0.37420277     3.56325968    -1.55486262     0.53342131    -0.42057118
O       9.38938209     3.08242202    11.93759509     1.55486262    -0.53342131     0.42057118
O       4.51766260     0.37423481    11.31373677     1.55442784     0.53347171    -0.42084629
O       5.22572145     3.08238992     4.18711813    -1.55442784    -0.53347171     0.42084629
