# total energy = -19878.96792046 eV

CRYSTAL
PRIMVEC
        9.49362383     0.00000000     0.00000000
        0.00002989     3.83258468     0.00000000
        0.00000000     0.00000000    14.69376268
PRIMCOORD
24 1
Ti      3.44099987     2.27118608     5.45128118     0.26949439    -0.18813643     2.38006002
Ti      6.05265412     1.56139846     9.24248164    -0.26949439     0.18813643    -2.38006002
Ti      8.18764975     1.56139977     1.89554152     0.26473631     0.18732473    -2.38269515
Ti      1.30600424     2.27118498    12.79822143    -0.26473631    -0.18732473     2.38269515
Ti      3.44098505     0.35489381     1.89560043     0.26975664    -0.18817962    -2.38156001
Ti      6.05266893     3.47769087    12.79816252    -0.26975664     0.18817962     2.38156001
Ti      1.30598942     0.35489244     9.24242273    -0.26446660    -0.18753273    -2.38140523
Ti      8.18766456     3.47769224     5.45134008     0.26446660     0.18753273     2.38140523
O       3.00480254     1.34951819     7.49811461     0.77818785     0.80935812    -2.37656666
O       6.48885152     2.48306635     7.19564821    -0.77818785    -0.80935812     2.37656666
O       1.74208615     1.34953363     0.15128053    -0.77939859     0.80919948    -2.37618228
O       7.75156797     2.48305092    14.54248189     0.77939859    -0.80919948     2.37618228
O       6.48883671     0.56677401     0.15123286    -0.77975340    -0.80935169    -2.37609255
O       3.00481728     3.26581053    14.54252955     0.77975340     0.80935169     2.37609255
O       7.75155316     0.56675858     7.49816234     0.77998300    -0.80992325    -2.37869142
O       1.74210076     3.26582604     7.19560048    -0.77998300     0.80992325     2.37869142
O       0.34494352     2.33119525     3.96915186    -1.87958612     0.57127722     0.02585194
O       9.14871047     1.50138930    10.72461096     1.87958612    -0.57127722    -0.02585194
O       5.09176794     1.50135367     3.37777621    -1.87870346    -0.57131013    -0.02440055
O       4.40188612     2.33123094    11.31598634     1.87870346     0.57131013     0.02440055
O       0.34492871     0.41490291     3.37772928    -1.87904850     0.57100057    -0.02310754
O       9.14872528     3.41768164    11.31603327     1.87904850    -0.57100057     0.02310754
O       4.40187131     0.41493853    10.72465775     1.87867981     0.57104197    -0.02519862
O       5.09178275     3.41764601     3.96910500    -1.87867981    -0.57104197     0.02519862
