# total energy = -19961.46690108 eV

CRYSTAL
PRIMVEC
        7.60600008     0.00000000     0.00000000
        0.00000000     7.60600008     0.00000000
       -1.89786986    -1.89786986     4.85670466
PRIMCOORD
24 1
Ti      3.86183101     6.50655402     1.23816200    -0.78003648     1.90221030    -0.36602598
Ti      3.79158601     2.79921901     1.24715902    -0.12456691    -1.85254171    -1.43740481
Ti      0.00165998     6.71603301     1.14318902     0.73152900     0.24600530     1.90456491
Ti     -0.01122798     2.94537703     1.19661899     0.13789628    -0.57454792     0.20701450
Ti      5.64793123     2.90173922     3.59361879     0.68587056    -0.64345326     0.23741884
Ti      5.70228323    -0.89972378     3.65407581     0.47019581     0.41733056    -0.26475739
Ti      1.89258524     2.79852822     3.60072982    -0.72202466    -0.40282722     0.46730717
Ti      1.93368125    -1.00165379     3.61468480    -0.59026534     0.46916274     0.82549129
O       3.81771001     4.60091202     0.88179001     0.22297052     1.77225615    -0.75114884
O       3.81885499     0.82947301     0.82949301     0.12993743     1.44592930     0.05221527
O      -0.02898198     4.78775202     0.78213498     0.08681153    -0.15972393    -0.43101527
O      -0.07436798     0.98436203     0.81803400     0.48557847    -0.16449281    -0.31635405
O       5.58208422     4.81972120     4.10625279     0.28165417    -0.73265463    -1.08407520
O       5.64576525     0.97493923     4.09636781     0.35079296     0.75990885    -0.44932333
O       1.90100725     4.79695224     4.11230880     0.37105300    -2.52698397    -0.14551189
O       1.84399925     0.91776422     4.03968880     0.22556091     0.97704013     0.49262329
O       3.78269223     2.91229921     3.22729583     0.60619873    -0.14640304     0.05499026
O       3.78119921    -0.74062378     3.21339482     1.66963902    -0.87321201    -0.09340924
O       0.05726825     2.90364722     3.23746281    -1.56925231     0.25814425    -0.09608267
O       0.08114224    -0.93725176     3.27246180    -1.99719614     0.04669562    -0.49501030
O       5.75224799     6.57416498     1.64268800    -0.15373249    -0.06782418     0.53479711
O       5.70358998     2.69658201     1.57996002     0.11567243     0.73630200     1.28348592
O       1.95031900     6.66221600     1.64895700    -0.75690914    -0.58336964    -0.67382571
O       1.87677601     2.87072102     1.59499701     0.12262315    -0.30295114     0.54403560
