# total energy = -19958.24700311 eV

CRYSTAL
PRIMVEC
        5.93400000     0.00000000     0.00000000
        0.00000000     9.29699974     0.00000000
        0.00000000     0.00000000     4.64899994
PRIMCOORD
24 1
Ti      4.54691398     6.92608098     2.06672398    -0.71376061     1.60650427     1.97637662
Ti      4.38945798     2.50243402     2.39956202    -0.88676095    -0.89657332     0.82158861
Ti      1.49358199     6.82067199     2.40829101    -0.34623054     1.01689662     0.67740237
Ti      1.43158999     2.36611802     2.40894698     1.02923843    -1.09430485     0.43087617
Ti      2.96034898     4.92481999     0.06280302     0.52135949    -2.34097796    -1.46518533
Ti      2.91680399     9.09044202     0.04396701     0.68359436     1.29301160    -0.88890294
Ti      0.08994600     4.64360001     4.56601400    -0.50610050    -2.24969296    -0.49386539
Ti      5.86735399     9.22660001     0.05570898    -0.71029117     1.00289927     0.18848044
O       4.49008299     5.58482001     0.82053198     0.26139310     0.60422309     0.52112475
O       4.45647399     0.69581400     1.01138399     0.49753333     0.51868606    -0.08040434
O       1.39585100     5.73979597     0.71031002     0.26629157    -0.61075087     0.17096377
O       1.56032998     0.61725399     0.89707397    -1.42159483     2.04979810     0.88926829
O       4.46519600     8.32937099     3.77636999     0.91041974    -0.71369531    -0.87638629
O       4.43659799     4.02775802     3.73053202    -1.40829117    -2.33736144    -0.36449746
O       1.50885997     8.21757499     3.62550002    -0.67449754     0.79162830     0.90530196
O       1.58129598     3.78582401     3.63571399     0.13032567     1.33740506     1.58158230
O       3.02791201     6.17372000     3.16275399     0.60419815    -1.65645774     0.98372320
O       3.00516199     1.49288798     3.42577398     0.14194989     0.55115293    -1.60761833
O       5.77708302     5.73283899     3.07407600     1.17010974     3.32111550    -1.53616477
O       5.81256700     1.76146099     3.36714902     1.38654734    -2.18128385     0.67132120
O       2.78987199     7.75060502     1.38252102     2.15413788    -0.45747244    -0.28898053
O       2.99371599     3.20936202     1.37350802    -0.39461460     0.91996831    -0.31965329
O       0.12348600     7.90145699     1.48081300    -1.41143100    -0.96053287    -0.11297252
O       0.15411002     3.31040497     1.49701900    -1.28352603     0.48581424    -1.78337849
