# total energy = -19944.81001055 eV

CRYSTAL
PRIMVEC
        6.34806021     0.00000000     0.00000000
        0.00002952     5.52784582     0.00000000
        0.00000000     0.00000000    10.43308743
PRIMCOORD
24 1
Ti      2.30088398     3.27579620     3.87060116     0.25788174    -0.46856830     0.43451222
Ti      4.04720581     2.25204938     6.56248668    -0.25788174     0.46856830    -0.43451222
Ti      5.47480410     2.25205117     1.34590108     0.25780050     0.46869942    -0.43438727
Ti      0.87328569     3.27579459     9.08718688    -0.25780050    -0.46869942     0.43438727
Ti      2.30086946     0.51187341     1.34594291     0.25788174    -0.46856830    -0.43451222
Ti      4.04722033     5.01597235     9.08714505    -0.25788174     0.46856830     0.43451222
Ti      0.87327116     0.51187139     6.56244485    -0.25780050    -0.46869942    -0.43438727
Ti      5.47481862     5.01597431     3.87064299     0.25780050     0.46869942     0.43438727
O       2.00921155     1.94644840     5.32392481     0.92779552     1.00236397    -0.46462165
O       4.33887824     3.58139718     5.10916303    -0.92779552    -1.00236397     0.46462165
O       1.16487644     1.94647074     0.10741450    -0.92734840     1.00243570    -0.46528397
O       5.18321340     3.58137490    10.32567305     0.92734840    -1.00243570     0.46528397
O       4.33886372     0.81747421     0.10738063    -0.92779552    -1.00236397    -0.46462165
O       2.00922607     4.71037137    10.32570692     0.92779552     1.00236397     0.46462165
O       5.18319882     0.81745193     5.32395868     0.92734840    -1.00243570    -0.46528397
O       1.16489085     4.71039371     5.10912916    -0.92734840     1.00243570     0.46528397
O       0.23065755     3.36234921     2.81823730    -0.57464254     0.00202834     0.12465304
O       6.11743224     2.16549637     7.61485054     0.57464254    -0.00202834    -0.12465304
O       3.40469401     2.16544500     2.39833981    -0.57501972    -0.00193861    -0.12471578
O       2.94339578     3.36240058     8.03474785     0.57501972     0.00193861     0.12471578
O       0.23064297     0.59842624     2.39830647    -0.57464254     0.00202834    -0.12465304
O       6.11744682     4.92941934     8.03478119     0.57464254    -0.00202834     0.12465304
O       2.94338120     0.59847761     7.61488382     0.57501972     0.00193861    -0.12471578
O       3.40470859     4.92936797     2.81820396    -0.57501972    -0.00193861     0.12471578
