# total energy = -19074.97184121 eV

CRYSTAL
PRIMVEC
        5.17600016     0.00000000     0.00000000
        0.00000000     5.50899976     0.00000000
        0.00000000     0.00000000     9.26300011
PRIMCOORD
22 1
Ti      1.99223201     3.42289001     3.20808898     0.04734945     0.42561672     1.16781863
Ti      3.40654002     2.31943802     5.95050298     1.13801748    -0.47351639    -1.28462132
Ti      4.48942300     2.32449002     1.26979801     0.13329761    -0.54608992    -2.11987509
Ti      0.73003399     3.18783599     8.09144300    -1.07866559    -0.13695680     1.58497333
Ti      1.92380601     0.53695801     1.32799402    -0.33027066     0.36577247    -2.04276870
Ti      3.02829402     4.96238400     8.03557400     1.79357652     1.53152547     1.59793786
Ti      0.50475598     0.21241402     6.07342598     0.11639928     0.86844955    -1.82846332
Ti      4.57656399     4.96196802     3.35975700    -0.59327636     0.91190635     1.55261984
O       3.59481600     3.50019402     4.41259398    -0.51727684    -0.46403698     1.10820861
O       0.95935999     1.89932600     0.17018700    -0.52683286     0.73693552    -0.46345154
O       4.24882600     3.62045998     9.08050899    -0.13121758     0.14449837    -0.41384723
O       3.43968700     0.85728799     0.15513498     0.13414299    -0.32499296    -1.13139637
O       1.62026401     4.69532200     9.18516300    -0.79873535    -0.50541685    -0.51072232
O       4.39745702     0.86883501     4.80882698    -0.38438521    -0.54205688     0.08136979
O       1.09556699     4.80070998     4.27391699    -0.29707051    -0.25331135     1.97471620
O       0.25771699     3.63714901     2.35379401     0.13611991    -1.71442482    -0.85856725
O       4.97322298     1.94816499     6.94697702     0.20991548    -0.53475649    -0.37911881
O       2.78126598     2.05885500     2.11866098    -0.06852944     0.24296497     1.43750431
O       2.35258701     3.46898199     7.06517702    -0.74342061    -0.74851140    -0.86852206
O       0.10699303     0.77114402     2.13342502     0.40840600    -0.06020446     0.63325086
O       2.23714202     0.71201699     6.48129798     0.61096042     0.13965723     0.91553264
O       2.86919101     4.69523501     2.27480002     0.74149640     0.93694891    -0.15257806
