# total energy = -19960.69526834 eV

CRYSTAL
PRIMVEC
        5.93400000     0.00000000     0.00000000
        0.00000000     9.29699974     0.00000000
        0.00000000     0.00000000     4.64899994
PRIMCOORD
24 1
Ti      4.42637799     7.03320598     2.26090901    -0.01161368    -0.91485181     0.49051576
Ti      4.46432698     2.24228599     2.22829502    -0.32387222     0.66430671     0.84294034
Ti      1.43682101     6.98530501     2.38787101    -0.04635469    -1.22065662    -0.10962031
Ti      1.52901300     2.36573600     2.34945401     0.28101371    -0.05711374     0.25598375
Ti      2.96805402     4.66855098     4.59002102     0.89317457     0.54776550     0.14357482
Ti      2.93167001     9.26299402     0.06822698     0.34092481     0.07473994    -0.63677019
Ti      0.01889703     4.58469501     0.02905098    -0.84301413     0.68726384    -0.21538602
Ti      0.01731902     0.01275698     4.63141300    -0.58672956    -0.27380228    -0.39368952
O       4.34550298     5.64383698     0.88494200     0.67813077    -0.41136097    -0.18886894
O       4.43733301     0.83752402     0.83079098     0.78751839     0.90666644     0.99763365
O       1.48292500     5.56352798     0.85668299    -0.24484110     0.16531171     0.25979670
O       1.44140099     0.93431800     0.89711499     0.34348948    -0.11435783    -0.27249384
O       4.45231201     8.36485899     3.71236097     0.44428782     0.27561825     0.52021535
O       4.46821802     3.75562201     3.73668900    -0.16635738    -0.18283816     0.53115694
O       1.65581398     8.33661098     3.72687800    -1.72314215     0.38103249     0.54517717
O       1.41064298     3.66242897     3.80096102     0.54308661     0.12813277    -0.20685484
O       3.03461298     6.04335099     3.22543302    -0.73014446     0.07021505    -0.27910929
O       3.00577901     1.40430101     3.34546598    -0.32832151     0.54695226    -1.40255195
O       5.86483601     5.99687298     3.20318102     0.63967605     0.97616287    -0.50638101
O       5.86920802     1.47844900     3.15440601     0.87705555    -1.40302092     1.20565037
O       2.87084098     7.89288898     1.50922098     0.76493150     0.47050125    -0.86539842
O       3.00972900     3.33674101     1.56144802    -0.63131816    -0.78753176    -0.59005245
O       0.08799699     8.02831099     1.44903701    -0.48456494    -0.95069917     0.09281223
O       0.05024199     3.19562399     1.42279998    -0.47301554     0.42156389    -0.21828057
