# total energy = -19961.02341519 eV

CRYSTAL
PRIMVEC
        7.60600008     0.00000000     0.00000000
        0.00000000     7.60600008     0.00000000
       -1.89786986    -1.89786986     4.85670466
PRIMCOORD
24 1
Ti      3.90194402     6.71788402     1.13787799    -1.98207702     1.48250352     0.95005742
Ti      3.84315200     2.97349602     1.20402901    -0.05684840    -1.43457685    -0.40933674
Ti     -0.08985800     6.56532698     1.24318601     3.00755932     0.73741940    -0.67631711
Ti      0.04160201     2.80272200     1.26569101    -0.41296406    -1.24772726    -0.20520188
Ti      5.68304822     2.72921420     3.67586680    -0.06364923     0.03666214    -0.26823764
Ti      5.70115122    -1.02880778     3.66917281    -0.50517774     0.14170717     0.69515919
Ti      1.93787625     2.92556124     3.65596481    -0.13614099    -0.30153832    -1.09234927
Ti      1.87780823    -0.82428675     3.64353179     0.20924391    -0.19552835    -1.96592406
O       3.88051901     4.82094202     0.69904802    -0.01592670     0.35983965     1.01162251
O       3.80275101     0.98676698     0.63435901     0.08758672    -0.07922523     2.16670286
O      -0.03050998     4.64721799     0.78160300    -0.32456050     0.13706299     0.70084313
O      -0.08951203     0.88898301     0.81099202     0.09144440     0.68860930    -0.49323084
O       5.65727623     4.70036522     4.07751979    -0.29911094    -0.26039423    -0.41403389
O       5.69402024     0.84858721     4.05445480    -0.13755741     0.39485989     0.68633516
O       1.96394024     4.88042022     4.01732482    -0.02425811    -2.41150848    -0.56288951
O       1.92902824     0.99611923     4.14749681    -0.25966840     1.20318597    -1.16286591
O       3.77721022     2.69043022     3.07331780    -0.92656576     0.53001280     2.42936454
O       3.70977822    -0.80206179     3.11616279     1.72118297    -0.55946814    -0.07692641
O      -0.09016275     2.67221123     3.29965982     1.72492367     0.78486964    -0.74127374
O      -0.04159079    -0.98106679     3.19290783    -0.33620940    -0.18447801     0.57344852
O       5.74303898     6.73437398     1.61663899    -2.07461388    -0.43006524     0.20557263
O       5.61769700     2.72875599     1.73343798     1.46801637     0.61183433    -1.16728924
O       1.82946799     6.78480298     1.58499599     0.30145810    -0.59476452    -0.30103155
O       1.90979101     2.77244597     1.62380701    -1.05608667     0.59070809     0.11780208
