# total energy = -4989.23915440 eV

CRYSTAL
PRIMVEC
        3.07105811     0.00000000     0.00000000
        0.95284896     4.71660281     0.00000000
       -0.00000635    -0.00006300     4.83637080
PRIMCOORD
6 1
Ti      2.01195031     2.35826991     2.41818551     0.00000000     0.00000000     0.00000000
Ti      0.00000000     0.00000000     0.00000000     0.00000000     0.00000000     0.00000000
O       1.72122400     0.91918419     0.94253750    -0.37845598     0.07017674    -0.03497576
O       2.30267662     3.79735563     3.89383352     0.37845598    -0.07017674     0.03497576
O       0.29072371     1.43906020     3.36072387     0.37839505    -0.07002042    -0.03502024
O       0.66211889     3.27747949     1.47564714    -0.37839505     0.07002042     0.03502024
