# total energy = -19961.37180365 eV

CRYSTAL
PRIMVEC
        7.60600008     0.00000000     0.00000000
        0.00000000     7.60600008     0.00000000
       -1.89786986    -1.89786986     4.85670466
PRIMCOORD
24 1
Ti      3.75439501     6.60054299     1.25634701     0.22651247    -1.40422780    -0.23238410
Ti      3.73244701     2.75624601     1.22754998     0.15235849     1.41679458     0.06052765
Ti      0.05446700     6.72603002     1.23153802    -0.08640221    -0.05986225    -0.18506859
Ti     -0.00607702     2.93920200     1.11999799    -0.11322294    -0.11254031     0.58338738
Ti      5.71830222     3.02233321     3.61195779     0.49555101    -0.49525533    -0.51090744
Ti      5.71847622    -0.88059878     3.60034384     0.18645210     0.06086061     0.13674314
Ti      1.82810224     2.74488822     3.63712980    -0.07267251     0.24487761     0.34659332
Ti      1.88392324    -1.08443579     3.71319083    -0.06984147    -0.08456207    -0.62105766
O       3.64291498     4.73026501     0.74092901     0.46450673    -0.89460308     0.28312664
O       3.71778298     0.87583698     0.92621000     0.40442619     0.27780446    -0.79469049
O       0.13368801     4.75798400     0.81798298    -0.34186249     1.47845223    -0.91981455
O       0.15121002     1.04250998     0.77214502    -0.80801163    -1.17020744    -0.31794916
O      -1.54550576     4.83278924     4.04490284    -1.40705472    -0.36576296     0.80243002
O       5.74370125     1.02143121     3.95312779    -0.56031506    -0.34790253     0.29390600
O       1.66328025     4.66501322     4.12601380     0.78007607     1.49780159    -0.20688646
O       1.98710121     0.88089824     4.02823180    -0.10461334    -0.62412113     0.47219433
O       3.75136425     2.87345221     3.13432283     1.17684346     0.29725152     0.92668120
O       3.80623220     6.34682425     3.21910084     0.17527885     0.61401849     0.57354339
O      -0.02172378     2.91001523     3.22346279     0.21037134    -0.80468051    -0.50834071
O      -0.01071378    -0.88795175     3.24156182     0.51980989     0.31269588    -0.55460027
O       5.72341699     6.58210201     1.55292102     0.12190916     0.44962080     0.37936950
O       5.76541000     3.09472799     1.60257203    -0.99080145    -0.75072178     0.18309758
O       1.88878601     6.53970703     1.71754298    -0.13779627     0.43676040     0.36087323
O       1.89613602     2.82009701     1.65370103    -0.22150139     0.02750979    -0.55077344
