# total energy = -39030.73538578 eV

CRYSTAL
PRIMVEC
        5.93200024     0.00000000     0.00000000
        0.00000000     9.29399984     0.00000000
        0.00000000     0.00000000     9.29399984
PRIMCOORD
46 1
Ti      4.41806498     7.19785700     6.94787001     0.33893709     0.25402432    -0.84305707
Ti      4.44916801     6.66397298     2.37434498    -0.21577349     1.48743052     0.58993470
Ti      4.42553400     2.14000201     7.02776302     0.29869134     0.39575489    -0.11945658
Ti      4.24921399     2.77514600     2.06224502    -0.36710302    -1.89255117     1.99585042
Ti      1.44253300     6.81519300     6.98363001    -0.33929061     1.83809673     1.51176885
Ti      1.54197102     7.04728199     2.14691200    -0.04565278     0.03502307    -0.23445693
Ti      1.51199699     2.49809800     6.80442101    -2.10693292    -1.71088030     1.41204215
Ti      1.25137100     1.84823701     2.88523503     1.42218619     0.46436146    -0.59909271
Ti      2.98530398     4.64706702     4.90130499     1.01622890     0.38670383    -2.19585455
Ti      2.98879300     4.90420901     8.90793799    -0.51820938    -3.52816394     2.37419765
Ti      2.98952798     9.19630102     4.56808398     1.19296943     0.04412786     0.95853153
Ti      2.96730502     0.04528498     0.00252100    -1.47841983    -0.35314295     0.56767922
Ti      0.05086801     4.64917801     4.64308401    -0.81555988    -0.44674991    -0.62852466
Ti      5.91781998     4.75579897     0.15199500     1.70756332    -0.94310464    -2.29502333
Ti      0.04230698     9.02780098     4.77886401    -0.55587862     1.33629743    -0.97795313
Ti      0.00492299     0.14989200     9.26983602     0.04777677    -0.07821993     0.94732460
O       4.62017402     5.69541700     5.55703397    -0.15822240    -0.23170353    -0.33629759
O       4.50661697     5.79198597     0.60270003    -1.38411508    -0.29924361     1.50252342
O       4.33171701     0.93144700     5.50649400     1.26589777    -0.49584386    -0.25687413
O       4.41062703     1.02338901     0.76822302     1.15423291     1.11547918     1.28644732
O       1.50259801     5.61194299     5.54360499    -0.42759981     0.09838073    -0.33351643
O       1.56628401     5.79364500     0.60145000     0.01058112    -1.00738662     0.73777884
O       1.43679699     0.83184499     5.77662100    -0.26381585     0.67566662    -2.27957485
O       1.45665198     0.67447101     1.18248901    -0.98499616     1.04188312    -0.59928940
O       4.36345198     8.61087699     8.33190803     2.08125016    -2.02452723    -1.04522170
O       4.48281400     8.03908398     4.00090598    -0.08134742     1.15960549    -0.97291171
O       4.52495402     3.84962701     8.26051498    -0.35624396    -0.64846948     1.37975500
O       4.33383298     3.99240099     3.70055598     0.92709566    -1.30519581    -0.95536367
O       1.69841502     8.27414902     8.34064702    -1.46509586     0.71900772     0.66248817
O       1.52413298     8.24039100     3.76265499    -0.87493850     1.29361273     0.14117187
O       1.50172598     3.68707599     8.44071200     0.65207083     0.92981075     0.22895759
O       1.72761502     3.71840698     3.87686202    -1.84185491    -0.85448434    -0.20884230
O       3.16533997     5.91527300     7.56452598    -0.90734367     2.08989010    -1.99172946
O       2.79416299     5.90404698     3.09144302     1.30393828     1.17754126    -0.34258188
O       2.93430701     1.49689501     7.93687800    -0.17558661     0.34003392    -0.34192034
O       3.07824602     1.57285502     3.10429102     0.01094056    -0.37998245     0.12762112
O       0.07775101     5.90087298     7.89372302    -0.19203320     1.60180841    -1.03064405
O       0.05657402     5.86280698     3.03433400    -0.06243566    -0.31012092     0.06556007
O       0.02113597     1.63961300     7.92379399     0.28441117    -1.85770371     0.87393089
O       2.83561402     8.12823098     6.06066398     1.29710686    -2.31490619     0.97423737
O       3.00771702     7.89811101     1.37114101     0.67124432    -0.44393712     0.94894748
O       2.98593201     3.14541301     6.03491903     1.40042153     1.15103163    -0.07831043
O       0.10555102     7.95578699     6.19506198    -0.36550585    -1.04357002     1.08240706
O       5.87943098     7.83763298     1.52783098    -0.65284447     0.57369432    -0.68037920
O       5.88933898     3.14457098     5.87055202     0.25698211     0.52962045     0.18301222
O       0.11440003     2.87923701     1.90155902    -0.70372662     1.43100096    -1.20529170
