# total energy = -19961.32799493 eV

CRYSTAL
PRIMVEC
        7.60600008     0.00000000     0.00000000
        0.00000000     7.60600008     0.00000000
       -1.89786986    -1.89786986     4.85670466
PRIMCOORD
24 1
Ti      3.81708600     6.64276101     1.18453401     1.02836297    -0.11079788    -1.01636440
Ti      3.83554502     2.74299202     1.21160799    -1.44188342     0.18952740    -0.18751397
Ti      0.01640502     6.67803100     1.22423998    -1.00941393     0.62826395     0.39712426
Ti     -0.07811000     2.88422297     1.29488001     0.88341106    -0.72790400    -0.74992216
Ti      5.64076722     2.95099922     3.63933780     0.65029162    -1.51053909     0.43093530
Ti      5.63720824    -0.91345376     3.65976483     1.15660142     1.57713892    -0.06909097
Ti      1.98440723     2.79895024     3.66993980    -1.47360107    -0.11803245    -0.13468626
Ti      1.96418821    -0.95876276     3.55368982    -0.79588039    -0.15590353     1.08364582
O       3.84776500     4.61603802     0.82395702    -0.22173305     1.86822801    -0.19665398
O       4.04495602     0.90496798     0.68167402    -0.93650231    -1.36381570     0.23900907
O      -0.17299000     4.79068800     0.76759298     0.41923601     0.26163401     0.60372713
O      -0.17010397     1.01898498     0.75810901     0.43493517    -0.46545341     0.42699149
O       5.65585523     4.85984321     4.07187580     0.18777442    -1.28158562    -0.14188921
O       5.60108925     1.02865422     4.05587083     0.12109849    -0.20837822     0.42277642
O       1.97632124     4.69946022     3.97311783    -0.36984356     0.28300452     0.48336166
O       2.06476724     0.87007122     4.17442580    -0.44394098     0.37921652    -1.81827326
O       3.72684223     2.87823623     3.23111681     1.36711031     0.04196196     0.04896436
O       3.84437022    -0.90209878     3.13611484    -1.37987507    -0.26326024    -0.08722239
O      -0.07225275     2.77915721     3.29031883     0.17891954     0.66436019    -0.58093069
O       0.05168723    -0.88284175     3.22070980     0.12759438    -0.17430955    -0.35677489
O       5.68625599     6.70935802     1.68242101     0.60815251    -0.40831730    -0.53186862
O       5.62329702     2.68531398     1.64797300     1.34278921     0.88443668     0.88849156
O       1.91155598     6.75839900     1.49702598     0.18607158    -0.25776810     0.46309082
O       1.88036500     2.66088599     1.62293302    -0.61967440     0.26829240     0.38307266
