# total energy = -4989.06635537 eV

CRYSTAL
PRIMVEC
        4.06936859     0.00000000     0.00000000
       -0.00000906     4.06936859     0.00000000
       -2.03471621    -2.03472074     5.19341936
PRIMCOORD
6 1
Ti     -0.00017920     3.05218057     1.29835470    -0.00018718     0.00018718     0.00000000
Ti      2.03482241    -1.01753283     3.89506432     0.00018718    -0.00018718     0.00000000
O       0.00004065     1.01733523     0.84596552    -0.00035970    -0.00153958    -0.81075963
O       2.03460244     1.01731239     4.34745355     0.00035970     0.00153958     0.81075963
O      -0.00002298    -1.01731757     3.44267514    -0.00153958    -0.00035970    -0.81075963
O       2.03466602     3.05196513     1.75074393     0.00153958     0.00035970     0.81075963
