# total energy = -4988.14226956 eV

CRYSTAL
PRIMVEC
        3.87846356     0.00000000     0.00000000
        1.49170986     3.58012309     0.00000000
       -2.68512272    -1.79008555     5.05589915
PRIMCOORD
6 1
Ti      1.11867755     2.68523014     1.26397452     0.00062555    -0.00062555     0.00000000
Ti      1.56637327    -0.89519257     3.79192394    -0.00062555     0.00062555     0.00000000
O       0.37296779     0.89502608     0.82356453    -0.00036767    -0.00040495    -1.72214456
O       2.31208286     0.89501141     4.23233398     0.00036767     0.00040495     1.72214456
O      -0.37293429    -0.89500375     3.35151400    -0.00040495    -0.00036767    -1.72214456
O       3.05798487     2.68504121     1.70438456     0.00040495     0.00036767     1.72214456
