# total energy = -19074.95579805 eV

CRYSTAL
PRIMVEC
        5.17600016     0.00000000     0.00000000
        0.00000000     5.50899976     0.00000000
        0.00000000     0.00000000     9.26300011
PRIMCOORD
22 1
Ti      1.84258301     3.40218098     3.28598900     0.87531748     0.68667917    -0.59079962
Ti      3.60688902     2.25097101     5.82949803    -0.48035810     0.05953572     0.72171304
Ti      4.40266698     2.21949999     1.35223600    -0.79475708     0.44013729    -2.36538185
Ti      0.81973699     3.21643400     8.14275499    -0.82587232     0.93754797     0.95346645
Ti      1.80111901     0.53833302     1.25014702     0.65229528    -0.02934813    -1.23333936
Ti      3.18601498     5.01370801     7.96451201     0.98149663    -0.34957657     1.41261705
Ti      0.61221601     0.24852000     6.00801502     0.07094628     1.44753316    -1.09615193
Ti      4.47348799     4.95428701     3.44552800    -0.99980906     0.26744214     0.17502663
O       3.35834102     3.64733202     4.47830102     0.57990019    -1.33557057     0.98216280
O       0.88035203     1.96882698     0.26571699    -0.01451723     0.00107369    -1.06688171
O       4.27189099     3.67536498     9.09064798     1.01801813    -0.28421731    -0.49142284
O       3.37032001     0.89218200     0.27087700     0.67349867     0.01500342    -1.86429911
O       1.71253199     4.70322299     9.09998002    -1.28609507    -0.32661018    -0.07966669
O       4.24575497     0.87778499     4.61731398     0.18695424     0.38961560     0.99053329
O       0.99662100     4.75325601     4.38084001    -0.81228532     0.00670750     1.54263522
O       0.11401399     3.54822803     2.41100902     0.30029776    -1.11099131     0.01425446
O       0.15925102     2.33980600     6.54348202    -0.19842882    -1.08875049    -0.13493386
O       2.67491199     1.98361103     2.24382701    -0.28690128     0.76919568     1.52116624
O       2.62726900     3.37095100     7.16565698    -0.74702633    -0.51723801    -0.71963070
O       0.00410298     0.68587902     2.07765000     0.58746387    -0.67984467     1.16457107
O       2.37469302     0.60808298     6.57662502     0.14404996     0.52410389     0.05308199
O       2.68960000     4.73179999     2.35194501     0.37581263     0.17757228     0.11127893
