# total energy = -19073.14711777 eV

CRYSTAL
PRIMVEC
        5.17600016     0.00000000     0.00000000
        0.00000000     5.50899976     0.00000000
        0.00000000     0.00000000     9.26300011
PRIMCOORD
22 1
Ti      1.82751702     3.47485501     3.44544699     0.82322769     0.68478221    -1.34564005
Ti      3.62701998     2.15055502     5.83623900     0.57756460    -0.07191558     0.14838382
Ti      4.32176398     2.23201699     1.40601602    -0.26336359     1.84366137    -2.88554064
Ti      0.70086902     3.15801002     7.84480899    -2.71595266    -2.33957079     4.78367625
Ti      1.80008902     0.54194698     1.16565302    -0.22648779     1.62106469    -1.16597489
Ti      3.25564899     5.11272501     8.10291800     0.97856351    -0.52860281     1.45519248
Ti      0.86450899     5.46467402     6.14311598    -0.58734894     1.98687573    -1.26964566
Ti      4.40956899     5.05809100     3.33742699    -0.10509465    -0.08110162     0.55246857
O       3.54027401     3.38475401     4.34645598     0.16737039    -0.38515705     1.43508542
O       0.96461202     1.94679299     0.09499700     0.02258612    -0.87982849     0.17678552
O       4.34666500     3.61629001     9.04308701    -0.75385621     1.14071713    -1.06613660
O       3.54903603     0.98169100     0.04315599    -0.71894216    -0.84276628     0.83949198
O       1.81718198     4.57895101     9.19880498    -0.29650667     0.56501607    -1.38504145
O       4.39141001     0.71344201     4.92590999    -0.51195748    -0.12037935    -0.40084259
O       1.18509298     5.08653602     4.32668702    -0.34893225    -1.23437937     0.76426198
O       0.14123000     3.71861601     2.39372302     0.01949925    -0.92180330     0.09693088
O       4.96285000     1.58842500     7.11460302     0.55004787     0.10612644    -1.10587507
O       2.39756602     2.19288698     2.12105302     2.35272996    -0.45484092     0.68040517
O       1.84190498     3.75203202     6.63993002     2.09100339     1.54665976    -1.59329574
O       0.15858701     0.97957001     2.20869202    -0.37689969    -1.81499562     1.24829933
O       2.41955100     1.00301902     6.71680699    -0.96480630    -1.37062089     0.40975738
O       2.75338099     4.72220400     2.39114900     0.28755614     1.55105867    -0.37274582
