# total energy = -4990.38207617 eV

CRYSTAL
PRIMVEC
        2.96773966     0.00000000     0.00000000
        0.23235519     4.64419423     0.00000000
       -0.00000128    -0.00006035     4.65145797
PRIMCOORD
6 1
Ti      1.60004668     2.32206678     2.32572888     0.00000000     0.00000000     0.00000000
Ti      0.00000000     0.00000000     0.00000000     0.00000000     0.00000000     0.00000000
O       1.52915210     0.90507317     0.90650058    -0.23251626     0.02487955     0.02068813
O       1.67094120     3.73906039     3.74495712     0.23251626    -0.02487955    -0.02068813
O       0.07089394     1.41696915     3.23223041     0.23243964    -0.02460238     0.02043514
O       0.16145986     3.22716463     1.41922730    -0.23243964     0.02460238    -0.02043514
