# total energy = -19961.42357496 eV

CRYSTAL
PRIMVEC
        7.60600008     0.00000000     0.00000000
        0.00000000     7.60600008     0.00000000
       -1.89786986    -1.89786986     4.85670466
PRIMCOORD
24 1
Ti      3.83673800     6.66908499     1.18340702    -1.33513117    -0.24924669    -0.34680492
Ti      3.73705302     2.78028902     1.25970099     1.53065258     0.41741670    -1.79272985
Ti     -0.10291900     6.71851999     1.19985300     1.47067207     0.10411840     0.29255205
Ti      0.00087902     2.85754302     1.26146501    -1.22140172    -0.02010655    -0.09072552
Ti      5.64081824     2.90860021     3.66870581     1.25293375    -0.63595103    -0.09351054
Ti      5.64143325    -0.89470278     3.59891183     0.93163521     0.73849026     1.00970421
Ti      1.98608620     2.77266320     3.62485982    -1.39725008    -1.17035965     1.36906615
Ti      1.95506022    -1.04808878     3.56296281    -0.93445699     1.48919327     0.18935385
O       3.90128302     4.73355099     0.81023101    -0.51011888     0.12074316    -0.23716919
O       3.93770899     0.98230199     0.76232100    -0.47848145    -0.99838158    -0.12143993
O      -0.07033602     4.82234301     0.81435198     0.20143752    -0.22019578     0.28846734
O      -0.06037500     1.02087499     0.79198202    -0.03039611    -0.57756049    -0.12890488
O       5.51997220     4.84931920     4.03972283     0.43489455    -0.84444675     0.26167875
O       5.65134421     0.97267224     4.06583683     0.03781374     0.12187882     0.43416153
O       2.07355020     4.73577925     4.05426779    -0.35144782    -0.35832681    -0.23297829
O       2.13142822     0.91288420     4.06930780    -0.99963962     0.59888137     0.13222520
O       3.80593825     2.64136623     3.17200681    -0.55409608     0.80037880     0.52548740
O       3.79915520    -0.91550675     3.22951780     0.41242053    -0.11243695    -0.94043275
O      -0.01841378     2.72771325     3.26082683     0.77359895     0.69339516     0.04523755
O       0.04683023    -0.86498377     3.26735582    -0.64842449    -0.43569930    -0.79164450
O       5.67619601     6.71740702     1.60907101     0.53793155    -0.04694913     0.51551486
O       5.68008901     2.82852802     1.78375300     0.47493924     0.47290858    -1.12213577
O       1.92006599     6.76639000     1.54152000     0.06234259    -0.48479351     0.44755466
O       1.87139597     2.72947001     1.59691099     0.33957241     0.59704971     0.38747285
