# total energy = -4949.66715374 eV

CRYSTAL
PRIMVEC
        4.62272645     0.00000000     0.00000000
       -0.00000655     2.48916070     0.00000000
       -2.31138889    -1.24463636     4.98700530
PRIMCOORD
6 1
Ti     -0.00019786     1.86695630     1.24675113    -0.02408867    -0.02467771    39.94591049
Ti      2.31152853    -0.62243181     3.74025378     0.02408867     0.02467771   -39.94591049
O       0.00004907     0.62228043     0.81234236     0.02326438     0.02405654   -29.10508293
O       2.31128150     0.62224396     4.17466265    -0.02326438    -0.02405654    29.10508293
O      -0.00001888    -0.62229730     3.30584501    -0.00140948     0.00002982    -0.35303008
O       2.31134935     1.86682169     1.68116000     0.00140948    -0.00002982     0.35303008
