# total energy = -19913.84242190 eV

CRYSTAL
PRIMVEC
        6.42873500     0.00000000     0.00000000
        3.21984768     6.03714903     0.00000000
        0.00000000     0.00000000    11.90663277
PRIMCOORD
24 1
Ti      4.23818602     3.57760893     4.41727585     0.19934722    -2.47595141     0.40542250
Ti      5.41039683     2.45954026     7.48935704    -0.19934722     2.47595141    -0.40542250
Ti      6.85613894     2.45954241     1.53599302    -1.00271184    -1.39802192     0.64377799
Ti      2.79244411     3.57760706    10.37063993     1.00271184     1.39802192    -0.64377799
Ti      2.62826242     0.55903462     1.53604078     0.19934722    -2.47595141    -0.40542250
Ti      7.02032055     5.47811480    10.37059224    -0.19934722     2.47595141     0.40542250
Ti      1.18252020     0.55903229     7.48930928     1.00271184     1.39802192     0.64377799
Ti      8.46606275     5.47811706     4.41732355    -1.00271184    -1.39802192    -0.64377799
O       3.16849838     2.12578285     6.07586359     1.77560604     2.01963134    -0.98638481
O       6.48008454     3.91136638     5.83076931    -1.77560604    -2.01963134     0.98638481
O       2.31344601     2.12580715     0.12258546     0.40985636    -1.32081064     1.83053768
O       7.33513699     3.91134213    11.78404705    -0.40985636     1.32081064    -1.83053768
O       4.87016083     0.89279184     0.12254682    -1.77560604    -2.01963134    -0.98638481
O       4.77842208     5.14435733    11.78408569     1.77560604     2.01963134     0.98638481
O       5.72521327     0.89276758     6.07590216    -0.40985636     1.32081064     1.83053768
O       3.92336959     5.14438167     5.83073066     0.40985636    -1.32081064    -1.83053768
O       2.19206467     3.67213623     3.21627856     0.66983279     3.21807824     2.98856529
O       7.45651826     2.36501300     8.69035427    -0.66983279    -3.21807824    -2.98856529
O       4.70927502     2.36495662     2.73707570     0.62857659     2.10720468     1.94577123
O       4.93930791     3.67219261     9.16955693    -0.62857659    -2.10720468    -1.94577123
O       0.58214095     0.65356168     2.73703770     0.66983279     3.21807824    -2.98856529
O       9.06644196     5.38358749     9.16959494    -0.66983279    -3.21807824     2.98856529
O       3.32938419     0.65361807     8.69039221    -0.62857659    -2.10720468     1.94577123
O       6.31919872     5.38353110     3.21624055     0.62857659     2.10720468    -1.94577123
