# total energy = -19959.64953479 eV

CRYSTAL
PRIMVEC
        7.60600008     0.00000000     0.00000000
        0.00000000     7.60600008     0.00000000
       -1.89786986    -1.89786986     4.85670466
PRIMCOORD
24 1
Ti      3.76925298     6.47354299     1.27467602    -0.72281836     2.13240973    -0.83027328
Ti      3.82066102     2.86365999     1.26728601    -1.49478234    -2.10900651    -1.00038319
Ti      0.02666498     6.76407903     1.15353899     0.73387025    -0.41409072     1.33275470
Ti     -0.02915798     2.93652098     1.21194597     0.99719965     0.39888135    -1.13922358
Ti      5.72908723     2.94508323     3.59354179     0.74567007    -0.38793565     1.10747482
Ti      5.73157224    -0.96710778     3.57064281     1.29935503     0.22096763     0.68072064
Ti      1.92085325     2.77622324     3.62706882    -1.50451988     0.00088626    -0.27229330
Ti      1.93290823    -1.09427775     3.62564179    -1.41133047     0.21423057     1.75608699
O       3.46277400     4.59313798     0.82234901     1.28229781     1.45981687    -0.91522025
O       3.60362701     0.81047899     1.03663098     1.23321235     0.67247305    -0.62692954
O       0.09529202     4.96230399     0.69169102    -0.67577435    -1.12476035     0.38733221
O       0.03943000     1.02588498     0.64894102    -0.54693761     0.09585590     0.99007434
O      -1.50429677     4.81910424     4.01527579    -0.95734702     0.37127412    -0.32712235
O       5.71766721     1.11228221     4.12364679    -0.34946833    -0.60803604    -1.56565740
O       1.60017925     4.62850322     4.11990980     1.20441650    -0.26536726     0.56105940
O       1.79087721     0.75061925     4.06221080     1.23682706     1.73217932     0.96362643
O       3.77564221     3.08819921     3.27743982     0.01513583    -0.75931749    -0.10217671
O       3.78813524    -1.19629079     3.20926481     1.45460292    -0.28124048     1.02593739
O       0.09404422     2.72909323     3.06440984    -2.54767699    -0.39892814     1.76324083
O       0.10353120    -0.98526078     3.12906683    -2.03164791     0.55782289     0.17502766
O       5.74547198     6.64166599     1.70213498    -0.57077997     0.15588116    -1.74173329
O       5.64160899     3.14049500     1.64852901     0.35617660    -0.44316245    -0.50171266
O       1.93026102     6.67051498     1.79444799    -0.09425668    -0.25784986    -1.95024238
O       1.75718598     3.06739397     1.62931998     2.34857608    -0.96298391     0.22963251
