# total energy = -19073.47775093 eV

CRYSTAL
PRIMVEC
        5.17600016     0.00000000     0.00000000
        0.00000000     5.50899976     0.00000000
        0.00000000     0.00000000     9.26300011
PRIMCOORD
22 1
Ti      1.85273300     3.49283301     3.20573699    -0.16019418    -0.03456490     0.62869306
Ti      3.36164002     2.08139600     5.85959398     0.12433320     1.54513381    -0.92812899
Ti      4.54822502     2.20871800     1.28134201    -0.02925737     1.28694148    -1.50264529
Ti      0.77035603     3.07026899     7.94922201    -0.86097612     0.59739733     1.79933991
Ti      1.99653999     0.65389703     1.23923501    -0.84308792     0.02703362    -2.22069733
Ti      3.24630801     4.96825501     8.04807799     0.71899924    -0.75990808     3.72022028
Ti      0.89841703     0.11485702     6.20984100    -1.02191978     0.21321704    -1.39662607
Ti      4.14876398     5.12245102     3.44317697     2.94917778    -0.23768829     2.31864534
O       3.38576902     3.57848903     4.51002599     0.27082417    -0.35733565     0.21582439
O       1.03495201     1.86480899     0.10799698    -0.26440412     0.62550567    -1.09388216
O       4.34490898     3.53927900     8.90790201     0.63577980    -0.10781488    -0.44722633
O       3.67696701     0.77594700     0.31603799    -0.33774332     0.03470271    -1.38493783
O       1.76979399     4.67152601     0.02531499     0.02116507     0.31740615    -1.09305735
O       3.22322599     0.82286999     4.55767797     1.20050868     0.10793032    -0.26229427
O       0.88414300     4.82704200     4.53289697    -0.98992059     0.11963399     0.85216649
O       0.36036299     3.71655100     2.19150101    -1.80456079    -0.63067256     0.67458727
O       5.11862798     1.96541299     6.46710401     0.86579643    -0.90508084     0.16111001
O       2.79859299     2.28325002     2.09738900     0.15835019    -0.28901164     0.51137230
O       2.44084298     3.56574702     7.15568199    -0.69279969    -0.96890182    -2.32918739
O       0.20763799     0.89976098     2.17001001     0.42918875    -1.07597956     2.44525397
O       2.39766100     0.82229700     7.04744302     0.37324770     0.78623053    -0.33367892
O       2.77799397     4.84605502     2.35090899    -0.74250684    -0.29417468    -0.33485057
