# total energy = -19880.99025809 eV

CRYSTAL
PRIMVEC
        9.34740930     0.00000000     0.00000000
        0.00003061     4.26362996     0.00000000
        0.00000000     0.00000000    14.22602637
PRIMCOORD
24 1
Ti      3.38800427     2.52662318     5.27775432     0.30823245    -0.37379174     2.69884248
Ti      5.95943522     1.73700684     8.94827225    -0.30823245     0.37379174    -2.69884248
Ti      8.06154893     1.73700829     1.83520207     0.30766732     0.37551978    -2.69906000
Ti      1.28589056     2.52662187    12.39082464    -0.30766732    -0.37551978     2.69906000
Ti      3.38798917     0.39480827     1.83525914     0.30755959    -0.37540923    -2.69788989
Ti      5.95945032     3.86882182    12.39076757    -0.30755959     0.37540923     2.69788989
Ti      1.28587546     0.39480668     8.94821518    -0.30813706    -0.37369199    -2.69967269
Ti      8.06156404     3.86882341     5.27781139     0.30813706     0.37369199     2.69967269
O       2.95852473     1.50129657     7.25943242     0.78088134     1.10440955    -2.50916827
O       6.38891477     2.76233338     6.96659416    -0.78088134    -1.10440955     2.50916827
O       1.71525591     1.50131377     0.14646490    -0.77989944     1.10432110    -2.50806038
O       7.63218366     2.76231625    14.07956126     0.77989944    -1.10432110     2.50806038
O       6.38889974     0.63051840     0.14641875    -0.78251348    -1.10501041    -2.50995760
O       2.95853976     3.63311162    14.07960741     0.78251348     1.10501041     2.50995760
O       7.63216862     0.63050121     7.25947856     0.78124361    -1.10475767    -2.50962619
O       1.71527080     3.63312882     6.96654801    -0.78124361     1.10475767     2.50962619
O       0.33963148     2.59338141     3.84280466    -2.15723863     0.65714901    -0.03250955
O       9.00780802     1.67024854    10.38322191     2.15723863    -0.65714901     0.03250955
O       5.01334801     1.67020882     3.27025385    -2.15942201    -0.65696929     0.03282040
O       4.33409148     2.59342120    10.95577252     2.15942201     0.65696929    -0.03282040
O       0.33961644     0.46156644     3.27020845    -2.15727488     0.65678495     0.03418489
O       9.00782305     3.80206359    10.95581791     2.15727488    -0.65678495    -0.03418489
O       4.33407645     0.46160616    10.38326724     2.15924049     0.65695541     0.03280909
O       5.01336305     3.80202387     3.84275927    -2.15924049    -0.65695541    -0.03280909
