# total energy = -19961.54564188 eV

CRYSTAL
PRIMVEC
        7.60600008     0.00000000     0.00000000
        0.00000000     7.60600008     0.00000000
       -1.89786986    -1.89786986     4.85670466
PRIMCOORD
24 1
Ti      3.81769101     6.53860300     1.21685102     0.35922593    -0.02883622     0.03633047
Ti      3.81930002     2.72919298     1.27357798     0.54214867     0.10143494    -1.29485251
Ti      0.07040000     6.74117899     1.20076599    -0.50365976     0.54596085    -0.54766703
Ti      0.03104101     2.89858701     1.23666802    -1.47598191    -0.35117683    -0.52602425
Ti      5.69736522     2.90026223     3.68218581    -0.41783527    -0.34883507    -0.92678353
Ti      5.71584621    -0.87394676     3.58618083    -0.52254529     0.53035373     0.04301072
Ti      1.85431921     2.82110123     3.59293980     0.49973651    -0.98638378     1.60041127
Ti      1.85190320    -1.00801778     3.60527280     0.76944250     0.77810507     1.10884958
O       3.83552402     4.63466199     0.84225798    -0.11128690     1.18500929    -0.48503313
O       3.82407400     0.86985601     0.78803801    -0.08868818     0.28593712     0.09021387
O      -0.04235402     4.76777399     0.72830898     0.20890889     0.71390691     0.97793976
O       0.02109301     1.05779701     0.71811401    -0.16384104    -0.46092518     0.71100413
O       5.82660221     4.93491124     4.07266379    -0.33161124    -1.86746054     0.11339598
O       5.54643323     1.04325522     3.98979882     0.37879100    -0.26089559     0.53240239
O       1.77236924     4.75282225     4.10593984     0.23225529    -1.06643871    -0.54381012
O       1.94430522     0.90862322     4.07441082    -0.21537265     0.36302293    -0.19470252
O       3.75543621     2.87585224     3.16140083    -0.22349451     0.49691986     1.06600419
O       3.71396020    -0.97677479     3.23872284     1.30731697    -0.13251779    -0.74985814
O      -0.00925579     2.86366523     3.29779780    -0.51509448     0.11021269    -0.65412848
O      -0.01036579    -0.72869676     3.29267283     0.42581726    -0.25163293    -1.24777765
O       5.78754099     6.65194197     1.59451700    -0.61442421    -0.08264634     0.24265284
O       5.65245802     2.80981002     1.69904300     1.27250576     0.09960714    -0.22426816
O       1.94699302     6.54036903     1.52254201    -1.47717079     0.12192124     0.84962058
O       1.81419001     2.70495000     1.63931201     0.66485744     0.50535746     0.02306949
