# total energy = -4989.74778574 eV

CRYSTAL
PRIMVEC
        3.99455323     0.00000000     0.00000000
        0.19959437     3.98956358     0.00000000
       -2.09710926    -1.99481552     5.09953323
PRIMCOORD
6 1
Ti      0.14953441     2.99232418     1.27488317     0.00003857    -0.00003857     0.00000000
Ti      1.94750342    -0.99757661     3.82464978    -0.00003857     0.00003857     0.00000000
O       0.04994061     0.99738437     0.83067227    -0.00044429    -0.00126935    -0.64961697
O       2.04709704     0.99736310     4.26886074     0.00044429     0.00126935     0.64961697
O      -0.04992091    -0.99736563     3.38043888    -0.00126935    -0.00044429    -0.64961697
O       2.14695856     2.99211304     1.71909418     0.00126935     0.00044429     0.64961697
