# total energy = -19916.04052705 eV

CRYSTAL
PRIMVEC
        6.43596079     0.00000000     0.00000000
        1.02175886     6.77317390     0.00000000
        0.00000000     0.00000000    11.55166724
PRIMCOORD
24 1
Ti      2.93821957     4.01377651     4.28558619    -0.15559191    -1.52795601     0.71453580
Ti      4.51950001     2.75939719     7.26608131     0.15559191     1.52795601    -0.71453580
Ti      5.96686628     2.75939948     1.49020136     0.17775637     0.10494887    -0.44270196
Ti      1.49085331     4.01377449    10.06146627    -0.17775637    -0.10494887     0.44270196
Ti      2.42734028     0.62718968     1.49024769    -0.15559191    -1.52795601    -0.71453580
Ti      5.03037931     6.14598422    10.06141995     0.15559191     1.52795601     0.71453580
Ti      0.97997399     0.62718720     7.26603499    -0.17775637    -0.10494887    -0.44270196
Ti      6.47774560     6.14598670     4.28563252     0.17775637     0.10494887     0.44270196
O       2.39680086     2.38494959     5.89472743     1.68986435     1.78612315    -0.39498613
O       5.06091871     4.38822412     5.65694001    -1.68986435    -1.78612315     0.39498613
O       1.54077858     2.38497697     0.11893088    -1.05747712     0.66418330     0.53308193
O       5.91694107     4.38819680    11.43273630     1.05747712    -0.66418330    -0.53308193
O       4.55003940     1.00163709     0.11889341    -1.68986435    -1.78612315    -0.39498613
O       2.90768017     5.77153661    11.43277376     1.68986435     1.78612315     0.39498613
O       5.40606176     1.00160977     5.89476496     1.05747712    -0.66418330     0.53308193
O       2.05165775     5.77156400     5.65690254    -1.05747712     0.66418330    -0.53308193
O       0.85532499     4.11982831     3.12039357     0.48399724     0.82459911     1.14994534
O       6.60239458     2.65334534     8.43127394    -0.48399724    -0.82459911    -1.14994534
O       3.85208412     2.65328234     2.65547693     0.57362001     1.19900072     0.40574054
O       3.60563545     4.11989130     8.89619038    -0.57362001    -1.19900072    -0.40574054
O       0.34444568     0.73324128     2.65543999     0.48399724     0.82459911    -1.14994534
O       7.11327389     6.03993236     8.89622725    -0.48399724    -0.82459911     1.14994534
O       3.09475614     0.73330428     8.43131075    -0.57362001    -1.19900072     0.40574054
O       4.36296343     6.03986937     3.12035669     0.57362001     1.19900072    -0.40574054
