# total energy = -19903.07471178 eV

CRYSTAL
PRIMVEC
        6.71002500     0.00000000     0.00000000
        1.41419255     7.00007284     0.00000000
        0.00000000     0.00000000    12.07056752
PRIMCOORD
24 1
Ti      3.27011042     4.14823668     4.47809461    -0.28333156    -1.59357213     0.62024930
Ti      4.85410681     2.85183632     7.59247338     0.28333156     1.59357213    -0.62024930
Ti      6.36310672     2.85183883     1.55714116     0.28907849    -0.12267740    -0.37992614
Ti      1.76111054     4.14823445    10.51342697    -0.28907849     0.12267740     0.37992614
Ti      2.56301430     0.64820052     1.55718956    -0.28333156    -1.59357213    -0.62024930
Ti      5.56120294     6.35187269    10.51337857     0.28333156     1.59357213     0.62024930
Ti      1.05401431     0.64819782     7.59242498    -0.28907849     0.12267740    -0.37992614
Ti      7.07020294     6.35187540     4.47814301     0.28907849    -0.12267740     0.37992614
O       2.62172640     2.46484468     6.15951840     1.70896894     1.84026726    -0.47821765
O       5.50249083     4.53522833     5.91104960    -1.70896894    -1.84026726     0.47821765
O       1.72925334     2.46487287     0.12427327    -0.92536994     0.43507761     0.69049495
O       6.39496396     4.53520020    11.94629438     0.92536994    -0.43507761    -0.69049495
O       4.79539470     1.03519197     0.12423409    -1.70896894    -1.84026726    -0.47821765
O       3.32882253     5.96488104    11.94633356     1.70896894     1.84026726     0.47821765
O       5.68786782     1.03516384     6.15955758     0.92536994    -0.43507761     0.69049495
O       2.43634934     5.96490925     5.91101042    -0.92536994     0.43507761    -0.69049495
O       1.10398273     4.25784103     3.26056154     0.50635582     1.19571665     1.42376922
O       7.02023449     2.74223198     8.81000645    -0.50635582    -1.19571665    -1.42376922
O       4.15280367     2.74216660     2.77476086     0.53828970     1.43584826     0.67317496
O       3.97141356     4.25790641     9.29580693    -0.53828970    -1.43584826    -0.67317496
O       0.39688660     0.75780467     2.77472229     0.50635582     1.19571665    -1.42376922
O       7.72733063     6.24226841     9.29584550    -0.50635582    -1.19571665     1.42376922
O       3.26431741     0.75786998     8.81004496    -0.53828970    -1.43584826     0.67317496
O       4.85989981     6.24220303     3.26052297     0.53828970     1.43584826    -0.67317496
