# total energy = -4985.84382538 eV

CRYSTAL
PRIMVEC
        4.03779919     0.00000000     0.00000000
        1.90013380     3.56276773     0.00000000
       -2.96900444    -1.78140663     5.33255777
PRIMCOORD
6 1
Ti      1.42500508     2.67221300     1.33313909     0.00074948    -0.00074948     0.00000000
Ti      1.54392333    -0.89085204     3.99941803    -0.00074948     0.00074948     0.00000000
O       0.47507529     0.89068740     0.86862997    -0.00030776    -0.00049931    -2.44965184
O       2.49385295     0.89067356     4.46392719     0.00030776     0.00049931     2.44965184
O      -0.47503692    -0.89066433     3.53490886    -0.00049931    -0.00030776    -2.44965184
O       3.44396508     2.67202519     1.79764826     0.00049931     0.00030776     2.44965184
