# total energy = -19519.90832066 eV

CRYSTAL
PRIMVEC
        5.17575250     0.00001323     0.00000000
        0.00001429     5.50856584     0.00000000
        0.00000000     0.00000000     9.26345890
PRIMCOORD
23 1
Ti      1.83505462     3.34100315     3.42055767    -0.04630996     0.00149510    -0.07433011
Ti      3.31859291     2.18528482     5.76383838     0.04157527    -0.03529329    -0.00440147
Ti      4.51587904     1.96838094     1.38319137     0.04933820     0.15805143     0.01823530
Ti      0.86767258     3.27717723     7.94982485     0.01736524     0.03251547     0.00090477
Ti      1.87487228     0.60970462     1.13255685     0.08645209    -0.03030689     0.02330012
Ti      3.21814580     5.11764537     7.95285369    -0.05035122     0.05796966    -0.00041909
Ti      0.67106261     0.58681380     5.74288187    -0.00395744     0.05393714    -0.05501494
Ti      4.39346638     4.87390273     3.45743779     0.02629597    -0.01684485    -0.01205694
O       1.60852705     1.90891054     4.70689404     0.03420186     0.10675199    -0.05720347
O       3.52264363     3.58293712     4.54146928    -0.05943159    -0.05637429    -0.01729710
O       0.84971091     2.01014228     0.08547536    -0.06296788     0.03983720     0.06434419
O       3.57171809     0.85761124     0.08077302     0.03501278     0.05658794     0.11418865
O       1.72175058     4.66350425     9.17678167    -0.02006978    -0.03724630    -0.01097399
O       4.19845267     0.80453606     4.73466331    -0.05911380    -0.00779584     0.04936494
O       0.93619366     4.65037406     4.57875675     0.02629031    -0.06374718    -0.04107699
O       0.15715940     3.39444427     2.43883607     0.03322432    -0.02536240     0.04778886
O       4.97929009     2.14295221     6.77787402     0.04687354    -0.05105030     0.00857283
O       2.76164773     2.18982151     2.11540203     0.02936381    -0.13109751    -0.05557544
O       2.54319251     3.35950437     7.16676321    -0.08300835     0.06988184     0.04002489
O       0.23899484     0.58929139     2.21939668    -0.03623406    -0.05663654    -0.04767778
O       4.97028362     4.81342884     7.29893754    -0.00358078    -0.04729289     0.05855895
O       2.34238951     0.68110171     6.78688935     0.01863793     0.01156251     0.00501031
O       2.78648736     4.92558265     2.48136820    -0.01960595    -0.02954224    -0.05426701
