# total energy = -19073.48563434 eV

CRYSTAL
PRIMVEC
        5.93400000     0.00000000     0.00000000
        0.00000000     9.29699974     0.00000000
        0.00000000     0.00000000     4.64899994
PRIMCOORD
22 1
Ti      4.41220598     6.83700002     2.35741199    -0.68652542    -0.61621395     0.15609173
Ti      4.35484402     2.51629302     2.03896799     0.81773529    -0.73177763     0.93897057
Ti      1.49959397     7.22655200     2.53693199     0.95121391    -0.25410351     0.51545752
Ti      1.54385103     2.34991397     2.17006600    -0.20511652    -0.00592022     0.50057340
Ti      2.99647999     4.54245900     4.39185901    -0.99474527     0.58272146     0.82332436
Ti      3.09373203     0.05467899     0.04626898     0.28211029    -0.01125347    -0.65130155
Ti      5.79301798     4.64407902     4.48101199     0.48251191    -0.47971661     0.13154617
Ti      0.06466498     9.10337897     0.34849000    -0.77121194     0.30400529    -0.48892373
O       4.35439099     5.39003997     0.87520699    -0.16766633     0.41233851     1.60338501
O       4.49397302     0.76342597     1.08893100     0.59735773     1.22009689    -0.08466209
O       1.52712902     0.60429200     1.33786899    -0.61188216     1.18024118    -0.69055640
O       4.38499500     8.23417200     3.97535201     0.51654073     1.71188200    -0.17754374
O       4.36643501     4.13283998     3.30940202     1.09968463    -2.34712624    -1.43485247
O       1.55402499     8.34332100     3.98489901    -0.66258844     0.78117214    -0.34923076
O       1.48662098     3.79459401     3.45406199    -0.48744586     0.15280226     0.33872574
O       2.95680403     6.20077302     3.40756202    -1.40820761    -0.61917664    -0.44171569
O       3.21266901     1.57030301     3.26359300    -0.39760145    -0.40262385     0.62464049
O       5.81174799     6.27436898     3.61585698     1.70457338    -0.37868893    -1.16074912
O       2.98501801     7.88163401     1.54984697    -0.22075397    -0.80905062     0.20906676
O       2.90287197     3.00914601     1.09266900    -0.44446471     1.36885943    -1.18858389
O       5.84010501     7.91918401     1.66592698     0.54537772    -1.10669757     0.23689870
O       0.03248201     3.02882097     1.08238200     0.06110383     0.04823006     0.58943899
