# total energy = -4985.81228057 eV

CRYSTAL
PRIMVEC
        3.28274039     0.00000000     0.00000000
        1.97829317     4.74790327     0.00000000
       -0.00001261    -0.00006834     5.25383054
PRIMCOORD
6 1
Ti      2.63051039     2.37391731     2.62691521     0.00000000     0.00000000     0.00000000
Ti      0.00000000     0.00000000     0.00000000     0.00000000     0.00000000     0.00000000
O       2.02690786     0.92528299     1.02389417     0.35732151     0.21374514    -0.31125092
O       3.23411292     3.82255164     4.22993620    -0.35732151    -0.21374514     0.31125092
O       0.60359712     1.44860674     3.65081053    -0.35839880    -0.21298461    -0.31172760
O       1.37468341     3.29922808     1.60301990     0.35839880     0.21298461     0.31172760
