# total energy = -19945.59218281 eV

CRYSTAL
PRIMVEC
        6.51756628     0.00000000     0.00000000
        0.00002754     5.12709765     0.00000000
        0.00000000     0.00000000    10.37696956
PRIMCOORD
24 1
Ti      2.36232064     3.03831336     3.84978169     0.35939973    -0.16344586     0.26699811
Ti      4.15527324     2.08878446     6.52718792    -0.35939973     0.16344586    -0.26699811
Ti      5.62099122     2.08878625     1.33866165     0.36083646     0.16345794    -0.26644686
Ti      0.89660266     3.03831181     9.03830808    -0.36083646    -0.16345794     0.26644686
Ti      2.36230699     0.47476465     1.33870326     0.35922438    -0.17270055    -0.26841119
Ti      4.15528689     4.65233335     9.03826647    -0.35922438     0.17270055     0.26841119
Ti      0.89658901     0.47476269     6.52714632    -0.36096219    -0.17273474    -0.26798927
Ti      5.62100487     4.65233531     3.84982330     0.36096219     0.17273474     0.26798927
O       2.06286061     1.80533828     5.29528814     0.89752591     0.77850307    -0.47077148
O       4.45473332     3.32175955     5.08168148    -0.89752591    -0.77850307     0.47077148
O       1.19598009     1.80535896     0.10683674    -0.89740147     0.77895687    -0.47148110
O       5.32161390     3.32173893    10.27013259     0.89740147    -0.77895687     0.47148110
O       4.45471967     0.75821067     0.10680307    -0.89751588    -0.77936516    -0.47136155
O       2.06287426     4.36888716    10.27016625     0.89751588     0.77936516     0.47136155
O       5.32160025     0.75819004     5.29532180     0.89688313    -0.77855912    -0.47132221
O       1.19599363     4.36890784     5.08164781    -0.89688313     0.77855912     0.47132221
O       0.23681502     3.11859142     2.80307836    -0.94356873     0.13580752     0.25253976
O       6.28077892     2.00850640     7.57389125     0.94356873    -0.13580752    -0.25253976
O       3.49560518     2.00845858     2.38543945    -0.94432900    -0.13550156    -0.25351241
O       3.02198875     3.11863930     7.99152999     0.94432900     0.13550156     0.25351241
O       0.23680137     0.55504260     2.38540630    -0.94468690     0.13558820    -0.25358260
O       6.28079257     4.57205528     7.99156314     0.94468690    -0.13558820     0.25358260
O       3.02197510     0.55509042     7.57392434     0.94464294     0.13566508    -0.25267577
O       3.49561884     4.57200741     2.80304522    -0.94464294    -0.13566508     0.25267577
