# total energy = -19961.68769421 eV

CRYSTAL
PRIMVEC
        7.60600008     0.00000000     0.00000000
        0.00000000     7.60600008     0.00000000
       -1.89786986    -1.89786986     4.85670466
PRIMCOORD
24 1
Ti      3.81746701     6.56545801     1.18138101    -0.16135838    -0.01952548     0.92495393
Ti      3.78553899     2.76740397     1.24724199     0.39987920    -0.02245140    -0.66623401
Ti      0.06159798     6.75682501     1.17483001    -0.26739509     0.00487610     0.12199709
Ti      0.01306798     2.88117899     1.21084100    -0.79228290     0.15796915    -0.31103778
Ti      5.70392522     2.92154722     3.67184484     0.17084370    -0.30625424     0.08345855
Ti      5.70181523    -0.89123276     3.57459280     0.30015095     0.52307082     0.47305796
Ti      1.88809623     2.84872523     3.62686683    -0.37424812    -1.68377983     0.33509097
Ti      1.87483425    -1.03215975     3.63223984    -0.38695631     1.48130410     0.06007899
O       3.82229400     4.61845398     0.83064799    -0.07847061     1.75121604    -0.46611881
O       3.78834400     0.90994700     0.78385502     0.18425946    -0.91537529     0.16907118
O      -0.02914999     4.83243897     0.79947099    -0.06367262    -0.42206088    -0.13158448
O       0.06441500     1.01712402     0.72209300    -0.59467093     0.09687740     0.84388574
O       5.88945725     4.91922923     4.07086681    -0.64393585    -2.00292687    -0.12394522
O       5.66976021     1.02851822     4.07080083    -0.34988870     0.15620820     0.01721406
O       1.71214722     4.71496120     4.09769383     0.41480291    -0.43888722    -0.04386612
O       1.95060121     0.90005822     4.06643882    -0.14452408     0.10250966    -0.01054230
O       3.73046625     2.87271723     3.25994882     0.11264598     0.43230236    -0.09230932
O       3.75140420    -1.07509375     3.22712380     0.29786010     0.14195914    -0.68398337
O      -0.05047377     2.84499422     3.23533779     0.62585456     0.06599587    -0.06936530
O      -0.04680975    -0.79041576     3.30061281     1.57705407    -0.08337756    -0.88923487
O       5.78904602     6.65944999     1.63870801    -1.76029075     0.06998443    -0.67836242
O       5.65751098     2.84442202     1.72510498     0.12555267    -0.11451981    -0.52699150
O       1.88178002     6.50472201     1.57123600     0.66798031     0.34819229     0.83033885
O       1.83268798     2.69751299     1.58880601     0.74081017     0.67669275     0.83442870
