# total energy = -19071.71794205 eV

CRYSTAL
PRIMVEC
        7.60600008     0.00000000     0.00000000
        0.00000000     7.60600008     0.00000000
       -1.89786986    -1.89786986     4.85670466
PRIMCOORD
22 1
Ti      3.96507502     6.81046998     1.39640399    -0.58502312    -1.85416793    -0.69010954
Ti      3.35437299     2.84818299     1.04317098     1.41515525    -0.66415373    -0.04198356
Ti     -0.07368100     6.57751399     1.27304600     1.12795777     0.57685189    -1.71668508
Ti     -0.04331602     2.89369498     1.16172901    -2.16636965    -0.43468603     0.85148721
Ti      5.34815522     3.01341525     3.60216182     1.57453773     0.97278855    -1.24168851
Ti     -1.19946279    -0.43475679     3.80254781    -1.38458739    -1.88905524     2.29656110
Ti      1.92422220     2.77387825     3.68727183    -1.27704350    -0.35287813     2.23744191
Ti      2.07719623    -1.03691377     3.72382682    -0.74278478    -0.57472584    -1.62365842
O       3.75202498     4.56910498     0.82276198    -0.62629191     1.07069851    -0.49650540
O       3.77855999     0.92897400     0.98979001     0.56850994    -0.71027677    -0.46934811
O       0.20134401     4.74030202     0.65024798    -0.33657013    -0.32086994    -0.27522667
O      -0.03404599     0.86279398     0.74300698     0.15547492    -0.72568231     0.70331807
O       5.09431223     4.77236021     4.24933883     0.33310505    -2.35178713    -1.11553908
O       5.15760924     0.76101324     3.88410979     0.16942856     2.13376676    -0.25030907
O       2.32322122     4.58665720     4.35307784    -0.85451905     1.46442943    -0.81332328
O       2.20299421     0.80634124     3.95306381    -0.69029260    -0.05589940     0.19020565
O       3.63733020     2.65158120     2.99648179    -0.89208108     0.77666602    -0.62063934
O       0.10097422     2.57871524     2.97663579     1.74467926     0.72620527     1.40273938
O       5.73229002     6.36623002     2.20005002     0.77096588     0.73419061    -1.33997976
O       5.76453998     3.06403899     1.56614299    -1.01301862    -0.29241527     1.30172456
O       1.91119301     6.40644501     1.70544398     0.65839754     0.93195351     2.01224301
O       1.65935798     2.43466700     0.36194401     2.05036991     0.83904692    -0.30072482
