# total energy = -19941.15323987 eV

CRYSTAL
PRIMVEC
        5.90773006     0.00000000     0.00000000
        0.62722541     6.25624838     0.00000000
        0.00000000     0.00000000    10.58681007
PRIMCOORD
24 1
Ti      2.51296127     3.70744703     3.92763112     0.02123115    -1.27817659     0.73561140
Ti      4.02199439     2.54880140     6.65917931    -0.02123115     1.27817659    -0.73561140
Ti      5.35056815     2.54880353     1.36573181    -0.00986507     0.21320829    -0.38864141
Ti      1.18438752     3.70744521     9.22107880     0.00986507    -0.21320829     0.38864141
Ti      2.19934868     0.57932290     1.36577428     0.02123115    -1.27817659    -0.73561140
Ti      4.33560699     5.67692578     9.22103633    -0.02123115     1.27817659     0.73561140
Ti      0.87077485     0.57932059     6.65913690     0.00986507    -0.21320829    -0.38864141
Ti      5.66418076     5.67692802     3.92767359    -0.00986507     0.21320829     0.38864141
O       2.09069067     2.20293143     5.40236828     1.46345729     1.51913121    -0.27198528
O       4.44426500     4.05331707     5.18444215    -1.46345729    -1.51913121     0.27198528
O       1.30492500     2.20295673     0.10899715    -1.01762604     0.72481893     0.38828917
O       5.23003072     4.05329183    10.47781304     1.01762604    -0.72481893    -0.38828917
O       4.13065240     0.92519269     0.10896282    -1.46345729    -1.51913121    -0.27198528
O       2.40430326     5.33105580    10.47784736     1.46345729     1.51913121     0.27198528
O       4.91641813     0.92516745     5.40240266     1.01762604    -0.72481893     0.38828917
O       1.61853748     5.33108105     5.18440782    -1.01762604     0.72481893    -0.38828917
O       0.59615553     3.80540506     2.85976159     0.37663384     0.39162878     0.74587730
O       5.93880008     2.45084344     7.72704884    -0.37663384    -0.39162878    -0.74587730
O       3.41422388     2.45078518     2.43367729     0.56812196     0.81080360     0.08902808
O       3.12073178     3.80546326     8.15313302    -0.56812196    -0.81080360    -0.08902808
O       0.28254293     0.67728068     2.43364345     0.37663384     0.39162878    -0.74587730
O       6.25241267     5.57896776     8.15316680    -0.37663384    -0.39162878     0.74587730
O       2.80711919     0.67733894     7.72708262    -0.56812196    -0.81080360     0.08902808
O       3.72783648     5.57890955     2.85972780     0.56812196     0.81080360    -0.08902808
