# total energy = -4986.13925257 eV

CRYSTAL
PRIMVEC
        4.76724617     0.00000000     0.00000000
       -0.00000818     3.52361693     0.00000000
       -2.38365226    -1.76185456     5.41226904
PRIMCOORD
6 1
Ti     -0.00020587     2.64284245     1.35306694    -0.00330875    -0.00310281     4.69030634
Ti      2.38379138    -0.88108008     4.05920129     0.00330875     0.00310281    -4.69030634
O       0.00004972     0.88089589     0.88161425     0.00037872     0.00100427    -1.13248009
O       2.38353560     0.88086643     4.53065398    -0.00037872    -0.00100427     1.13248009
O      -0.00002134    -0.88089250     3.58774860    -0.00239961    -0.00014475    -2.11023782
O       2.38360661     2.64265471     1.82451969     0.00239961     0.00014475     2.11023782
