# total energy = -19942.90972379 eV

CRYSTAL
PRIMVEC
        5.75358214     0.00000000     0.00000000
        2.07958463     5.75961926     0.00000000
        0.00000000     0.00000000    10.46394602
PRIMCOORD
24 1
Ti      3.31775681     3.41314495     3.88204936     0.60193713    -2.65647223     0.96130678
Ti      4.51541017     2.34647416     6.58189678    -0.60193713     2.65647223    -0.96130678
Ti      5.80931857     2.34647611     1.34988193    -1.59784325    -0.72842696     0.47519943
Ti      2.02384845     3.41314316     9.11406432     1.59784325     0.72842696    -0.47519943
Ti      2.27796464     0.53333547     1.34992388     0.60193713    -2.65647223    -0.96130678
Ti      5.55520237     5.22628375     9.11402237    -0.60193713     2.65647223     0.96130678
Ti      0.98405616     0.53333335     6.58185483     1.59784325     0.72842696     0.47519943
Ti      6.84911085     5.22628592     3.88209131    -1.59784325    -0.72842696    -0.47519943
O       2.55330223     2.02805979     5.33967156     1.53005712     1.98604526    -0.89108067
O       5.27986476     3.73155932     5.12427458    -1.53005712    -1.98604526     0.89108067
O       1.78804517     2.02808302     0.10773222    -0.07073159    -0.58910500     1.15341556
O       6.04512188     3.73153613    10.35621363     0.07073159     0.58910500    -1.15341556
O       4.24007256     0.85174973     0.10769826    -1.53005712    -1.98604526    -0.89108067
O       3.59309442     4.90786938    10.35624759     1.53005712     1.98604526     0.89108067
O       5.00532968     0.85172648     5.33970552     0.07073159     0.58910500     1.15341556
O       2.82783725     4.90789263     5.12424062    -0.07073159    -0.58910500    -1.15341556
O       1.47396217     3.50332684     2.82657288     0.46920747     1.75618007     1.65971301
O       6.35920482     2.25629227     7.63737326    -0.46920747    -1.75618007    -1.65971301
O       3.90048753     2.25623862     2.40543345     1.11224756     1.30529582     0.49450894
O       3.93267945     3.50338049     8.05851251    -1.11224756    -1.30529582    -0.49450894
O       0.43416997     0.62351724     2.40540002     0.46920747     1.75618007    -1.65971301
O       7.39899701     5.13610186     8.05854595    -0.46920747    -1.75618007     1.65971301
O       2.89288726     0.62357090     7.63740658    -1.11224756    -1.30529582     0.49450894
O       4.94027973     5.13604821     2.82653950     1.11224756     1.30529582    -0.49450894
