# total energy = -4990.04790281 eV

CRYSTAL
PRIMVEC
        2.87780829     0.00000000     0.00000000
        0.00000000     4.50909415     0.00000000
        0.00000000    -0.00005852     4.50909415
PRIMCOORD
6 1
Ti      1.43890409     2.25451777     2.25454703     0.00000000     0.00000000     0.00000000
Ti      0.00000000     0.00000000     0.00000000     0.00000000     0.00000000     0.00000000
O       1.43890409     0.87874462     0.87875603     0.00000000     0.37238484     0.37238484
O       1.43890409     3.63029091     3.63033803     0.00000000    -0.37238484    -0.37238484
O       0.00000000     1.37574942     3.13330397     0.00000000    -0.37271831     0.37271831
O       0.00000000     3.13328611     1.37579008     0.00000000     0.37271831    -0.37271831
