# total energy = -4987.41420716 eV

CRYSTAL
PRIMVEC
        3.85924267     0.00000000     0.00000000
        1.65296998     3.48732623     0.00000000
       -2.75614286    -1.74368623     5.06135766
PRIMCOORD
6 1
Ti      1.23963000     2.61562890     1.26533936     0.00057207    -0.00057207     0.00000000
Ti      1.51644005    -0.87198869     3.79601798    -0.00057207     0.00057207     0.00000000
O       0.41328258     0.87182698     0.82445374    -0.00023474    -0.00025325    -2.18856830
O       2.34278733     0.87181310     4.23690366     0.00023474     0.00025325     2.18856830
O      -0.41324781    -0.87180502     3.35513242    -0.00025325    -0.00023474    -2.18856830
O       3.16931766     2.61544506     1.70622498     0.00025325     0.00023474     2.18856830
