# total energy = -19518.14648467 eV

CRYSTAL
PRIMVEC
        7.60600008     0.00000000     0.00000000
        0.00000000     7.60600008     0.00000000
       -1.89786986    -1.89786986     4.85670466
PRIMCOORD
23 1
Ti      3.79773499     6.56910801     1.21683600     0.54729114    -0.13005596    -0.80864387
Ti      3.87641301     2.77228500     1.24230202    -0.25782158     0.01960724    -0.29703272
Ti      0.09856302     6.88815299     1.20685598    -1.37480537    -0.91949831     0.93445853
Ti     -0.10296001     2.93971102     1.14352801     1.81935724     0.27309651    -0.74586625
Ti      5.61759820     2.92285223     3.76412382     0.44775521    -0.62848300    -1.11393111
Ti      5.67114925    -1.01145378     3.58002179     0.32814950     1.16171508    -0.20649360
Ti      2.10956521     2.72084521     3.64523384    -1.67797248     0.55008181    -0.04458809
Ti      1.89033925    -1.05372176     3.64289784    -0.27408638    -0.57568847     0.57093012
O       4.09786702     4.71914202     0.75496797    -0.75014868    -0.80510706     0.06039086
O       4.08020499     0.87390300     0.76789498    -0.82285847     0.40047029    -0.32697605
O      -0.20396402     4.92685600     0.73263998     0.86736892    -0.61510658     1.79688476
O       7.29259301     1.02590398     0.78956199     1.02935387    -0.53958734    -0.36924963
O       5.61272025     4.78778821     4.02743681     1.41579288     0.98255361     0.20467943
O       5.67634725     1.04434220     4.10365284     0.16503917    -0.58680001    -0.65751848
O       1.50799921     4.58982925     3.97528179     0.56643969     0.41343894     0.47571391
O       1.80958124     0.85025825     3.97422381     0.69224407     1.23778531     0.76098588
O       3.85817921     2.87273723     3.24009584    -0.45190806    -0.09837610    -0.72750574
O       3.76125023     6.23799921     3.10863683    -0.64013473     0.82727255     0.80026387
O       0.03241322    -0.74755679     3.28650680    -1.16744119    -0.99140103    -0.76821788
O       5.63752199     6.71737702     1.72172898     1.15653225     0.01705362    -0.28408772
O       5.79187897     2.84301499     1.62565400    -1.02004005     0.39120815     0.97897669
O       1.92636299     6.86114903     1.64768100    -0.61957284    -0.20675482    -0.55840216
O       1.80665902     2.86292602     1.65352798     0.02146615    -0.17742521     0.32522976
