# total energy = -19935.35058136 eV

CRYSTAL
PRIMVEC
        5.78852902     0.00000000     0.00000000
        2.89919895     5.43593917     0.00000000
        0.00000000     0.00000000    10.72091000
PRIMCOORD
24 1
Ti      3.81612600     3.22133252     3.97738116     1.49853255    -3.52872110     0.78433819
Ti      4.87160213     2.21460679     6.74352895    -1.49853255     3.52872110    -0.78433819
Ti      6.17336992     2.21460872     1.38303106    -3.47259312    -0.59809024     1.00177673
Ti      2.51435839     3.22133083     9.33787911     3.47259312     0.59809024    -1.00177673
Ti      2.36652675     0.50336312     1.38307407     1.49853255    -3.52872110    -0.78433819
Ti      6.32120149     4.93257640     9.33783616    -1.49853255     3.52872110     0.78433819
Ti      1.06475886     0.50336103     6.74348595     3.47259312     0.59809024     1.00177673
Ti      7.62296937     4.93257843     3.97742411    -3.47259312    -0.59809024    -1.00177673
O       2.85296327     1.91408663     5.47079833     1.42196559     1.96287447    -1.21899286
O       5.83476492     3.52185272     5.25011178    -1.42196559    -1.96287447     1.21899286
O       2.08306135     1.91410851     0.11037778     0.98071244    -1.20634457     1.17859233
O       6.60466692     3.52183088    10.61053199    -0.98071244     1.20634457    -1.17859233
O       4.38516556     0.80388311     0.11034299    -1.42196559    -1.96287447    -1.21899286
O       4.30256262     4.63205619    10.61056678     1.42196559     1.96287447     1.21899286
O       5.15506755     0.80386127     5.47083307    -0.98071244     1.20634457     1.17859233
O       3.53266059     4.63207810     5.25007699     0.98071244    -1.20634457    -1.17859233
O       1.97376777     3.30644631     2.89598525     0.66761984     2.15072576     2.04945229
O       6.71396042     2.12949304     7.82492480    -0.66761984    -2.15072576    -2.04945229
O       4.24030158     2.12944227     2.46450385     1.22333262     1.26813411     0.73527921
O       4.44742662     3.30649708     8.25640604    -1.22333262    -1.26813411    -0.73527921
O       0.52416841     0.58847670     2.46446963     0.66761984     2.15072576    -2.04945229
O       8.16355977     4.84746259     8.25644025    -0.66761984    -2.15072576     2.04945229
O       2.99782726     0.58852747     7.82495896    -1.22333262    -1.26813411     0.73527921
O       5.68990092     4.84741182     2.89595104     1.22333262     1.26813411    -0.73527921
