# total energy = -19519.01359703 eV

CRYSTAL
PRIMVEC
        7.60600008     0.00000000     0.00000000
        0.00000000     7.60600008     0.00000000
       -1.89786986    -1.89786986     4.85670466
PRIMCOORD
23 1
Ti      3.76373102     6.70933199     1.24929599     0.93418291    -0.16051686     0.12203437
Ti      3.76923202     2.90500900     1.20240798     0.44230498     0.04194448     0.30539857
Ti      0.01580700     6.60893198     1.24632101    -1.14992374     0.67767594    -0.77773534
Ti     -0.05403900     2.86028998     1.05697202    -0.00889705    -0.84370910     0.71345568
Ti      5.66148822     2.76477121     3.61467083    -0.50443392     0.22734448    -0.65826102
Ti      5.69357425    -1.07144375     3.59390380    -0.15064973    -0.18024777     0.55221660
Ti      2.03395721     2.92064122     3.69667182     0.56372666    -0.58867486    -0.45917991
Ti      1.89709922    -0.94689379     3.67439484     0.06329981     0.29031211     0.58069466
O       4.04437498     4.80610902     0.75691598    -0.76271032    -0.27904553     1.30826673
O       3.84736801     0.97823701     0.82761200    -0.71344977    -0.05956837    -0.20544690
O      -0.17398602     4.70887302     0.68835102     0.55861428     0.41603164     1.49822248
O      -0.04418402     0.92713098     0.68758498     0.56650165    -0.64397622     0.89760073
O       5.64789625     4.63425622     4.00359383     0.88483108     1.12413737     0.25909042
O       5.65775821     0.89245225     3.98558080     0.57417023     0.37583037    -0.07919541
O       1.90343824     4.73457023     4.10231280    -0.61991377     1.16547044     0.02522613
O       1.94970024     0.99540220     4.07571180    -0.73466986    -0.37086377    -0.08475670
O       3.84201120     2.88879221     3.26672584    -0.56005770    -0.23443662    -0.82788627
O       3.76529320    -0.98985378     3.31380780    -0.10273361    -0.05746521    -0.96910082
O      -0.00120478    -1.01551078     3.30875579     0.23466544    -0.03178887    -0.76681458
O       5.70082202     6.82488800     1.68081199     0.06594342    -0.63972001    -0.25430199
O       5.68788501     2.73432198     1.65320402     1.48185457     0.38388384    -0.26017568
O       1.86411201     6.65155102     1.64428903     0.36981733    -0.13070259    -0.01397781
O       1.92154600     3.07989298     1.73484501    -1.43247240    -0.48191413    -0.90537343
