# total energy = -4984.47118174 eV

CRYSTAL
PRIMVEC
        4.24241173     0.00000000     0.00000000
       -0.00000728     3.13569580     0.00000000
       -2.12123183    -1.56788892     4.81642291
PRIMCOORD
6 1
Ti     -0.00018321     2.35188732     1.20410544    -0.00472132    -0.01052636    10.42560170
Ti      2.12135563    -0.78408043     3.61231674     0.00472132     0.01052636   -10.42560170
O       0.00004425     0.78391653     0.78455580     0.00329358     0.00495118    -3.59324141
O       2.12112801     0.78389031     4.03186639    -0.00329358    -0.00495118     3.59324141
O      -0.00001899    -0.78391351     3.19276710    -0.00141154    -0.00020903    -0.21612213
O       2.12119120     2.35172024     1.62365514     0.00141154     0.00020903     0.21612213
