# total energy = -19903.93336398 eV

CRYSTAL
PRIMVEC
        8.10522825     0.00000000     0.00000000
        0.00002552     3.27208811     0.00000000
        0.00000000     0.00000000    12.54487249
PRIMCOORD
24 1
Ti      2.93777064     1.93903634     4.65405824    -0.12978317     0.12053053     1.94428179
Ti      5.16748336     1.33305165     7.89081436     0.12978317    -0.12053053    -1.94428179
Ti      6.99024643     1.33305277     1.61832794    -0.12816208    -0.12066192    -1.94308751
Ti      1.11500757     1.93903540    10.92654478     0.12816208     0.12066192     1.94308751
Ti      2.93775799     0.30299234     1.61837823    -0.12915402     0.12166722    -1.94337110
Ti      5.16749601     2.96909576    10.92649448     0.12915402    -0.12166722     1.94337110
Ti      1.11499492     0.30299117     7.89076407     0.12753113     0.12153275    -1.94427999
Ti      6.99025907     2.96909694     4.65410853    -0.12753113    -0.12153275     1.94427999
O       2.56536501     1.15215782     6.40155239     3.30799284     0.23326136    -0.88982545
O       5.53988905     2.11993017     6.14332021    -3.30799284    -0.23326136     0.88982545
O       1.48731466     1.15217100     0.12915650    -3.30848700     0.23349173    -0.89095751
O       6.61793946     2.11991699    12.41571576     3.30848700    -0.23349173     0.89095751
O       5.53987640     0.48388612     0.12911581    -3.30865438    -0.23287544    -0.89086829
O       2.56537760     2.78820188    12.41575645     3.30865438     0.23287544     0.89086829
O       6.61792681     0.48387293     6.40159314     3.30867804    -0.23262913    -0.88992161
O       1.48732713     2.78821511     6.14327946    -3.30867804     0.23262913     0.88992161
O       0.29449723     1.99026946     3.38868301    -0.93232426     0.24317991     0.78504473
O       7.81075677     1.28181853     9.15618959     0.93232426    -0.24317991    -0.78504473
O       4.34712203     1.28178812     2.88379313    -0.93183652    -0.24293026    -0.78785983
O       3.75813202     1.99029993     9.66107925     0.93183652     0.24293026     0.78785983
O       0.29448459     0.35422541     2.88375306    -0.93293001     0.24397464    -0.78755259
O       7.81076941     2.91786258     9.66111931     0.93293001    -0.24397464     0.78755259
O       3.75811938     0.35425582     9.15622954     0.93199207     0.24391396    -0.78595465
O       4.34713468     2.91783217     3.38864300    -0.93199207    -0.24391396     0.78595465
