# total energy = -4967.18802950 eV

CRYSTAL
PRIMVEC
        4.51623850     0.00000000     0.00000000
       -0.00000684     2.70974310     0.00000000
       -2.25814469    -1.35492098     4.91837852
PRIMCOORD
6 1
Ti     -0.00019358     2.03240364     1.22959430    -0.01433108    -0.01988595    25.87522517
Ti      2.25828041    -0.67758162     3.68878362     0.01433108     0.01988595   -25.87522517
O       0.00004783     0.67742707     0.80116357     0.01286606     0.01553127   -16.00652617
O       2.25803890     0.67739490     4.11721440    -0.01286606    -0.01553127    16.00652617
O      -0.00001860    -0.67743609     3.26035283    -0.00177406    -0.00006376    -0.55440152
O       2.25810528     2.03225801     1.65802509     0.00177406     0.00006376     0.55440152
