# total energy = -4988.44083490 eV

CRYSTAL
PRIMVEC
        4.31276984     0.00000000     0.00000000
       -0.00000871     3.90203029     0.00000000
       -2.15641535    -1.95105431     5.25509389
PRIMCOORD
6 1
Ti     -0.00018852     2.92666934     1.31377322    -0.00161722    -0.00034556     1.44943603
Ti      2.15653397    -0.97569324     3.94132005     0.00161722     0.00034556    -1.44943603
O       0.00004382     0.97550023     0.85601176    -0.00028102    -0.00092740    -0.62429622
O       2.15630145     0.97547576     4.39908161     0.00028102     0.00092740     0.62429622
O      -0.00002211    -0.97548658     3.48355859    -0.00200649    -0.00032267    -1.28369546
O       2.15636738     2.92646251     1.77153478     0.00200649     0.00032267     1.28369546
