# total energy = -19074.39788715 eV

CRYSTAL
PRIMVEC
        5.93400000     0.00000000     0.00000000
        0.00000000     9.29699974     0.00000000
        0.00000000     0.00000000     4.64899994
PRIMCOORD
22 1
Ti      4.40297899     6.93432101     2.39197600     0.05767244    -0.48494392    -0.16479338
Ti      4.40404702     2.36790097     2.20416300    -0.38043471    -0.90646101    -0.06044203
Ti      1.49985999     7.13732600     2.54938501     0.08198891    -0.62593118     0.17071077
Ti      1.62242998     2.45612498     2.13336898    -0.25962495    -0.06090020     0.26799929
Ti      3.01230800     4.61920102     4.53496299    -0.31583366     0.15413435    -0.41404315
Ti      3.00182002     9.22537502     4.64271401     0.22278026     1.40580003     0.71850867
Ti      5.76910398     4.57031600     4.47719202     0.84536078    -0.80386496    -0.21532663
Ti      0.00097199     9.08923602     0.27170997    -0.12371227     1.16190535     1.08094462
O       4.51622001     5.51496698     0.81117401    -0.65301571     0.83552733     1.36136878
O       4.47533598     0.81830901     1.03239799     0.48664265     0.08852157    -0.58406564
O       1.56075300     0.71058397     1.15606602    -1.02074453     1.37041880    -0.96314589
O       4.53326301     8.24802899     3.94958098    -0.28545298     0.45741511    -1.09620618
O       4.35872902     3.93173299     3.33302899     0.25586111    -0.10077160     1.30781448
O       1.42860802     8.42603098     3.80196000     0.15277115     1.00067629     0.21670654
O       1.54728401     3.92445501     3.54911498    -0.64875513    -0.68083531    -0.25419015
O       2.90486898     6.22044799     3.38334698     0.29016247    -0.69347486     0.03762708
O       2.88893202     1.56800299     3.22440600     0.27981198    -0.65215465     0.73071293
O       0.03795402     6.15317702     3.40633401     0.31980910    -0.37049996    -0.85217652
O       2.98048201     7.98441802     1.50117801     0.12174229    -1.41793847     0.19861676
O       3.06082800     3.08187898     1.05735102    -0.59249012     0.58141020     0.35061144
O       0.03014802     7.85719100     1.59861801    -0.65562281    -0.34242685    -0.74057774
O       5.78610798     3.22095597     1.34411302     1.82108322     0.08439444    -1.09665381
