# total energy = -4984.40577099 eV

CRYSTAL
PRIMVEC
        3.42666864     0.00000000     0.00000000
        0.00000000     5.36907603     0.00000000
        0.00000000    -0.00006968     5.36907603
PRIMCOORD
6 1
Ti      1.71333426     2.68450311     2.68453795     0.00000000     0.00000000     0.00000000
Ti      0.00000000     0.00000000     0.00000000     0.00000000     0.00000000     0.00000000
O       1.71333426     1.04634024     1.04635382     0.00000000    -0.88005963    -0.88005963
O       1.71333426     4.32266598     4.32272208     0.00000000     0.88005963     0.88005963
O       0.00000000     1.63813462     3.73089287     0.00000000     0.88259139    -0.88259139
O       0.00000000     3.73087161     1.63818304     0.00000000    -0.88259139     0.88259139
