# total energy = -19911.55186835 eV

CRYSTAL
PRIMVEC
        7.13736291     0.00000000     0.00000000
        0.00002337     3.25556241     0.00000000
        0.00000000     0.00000000    10.86250851
PRIMCOORD
24 1
Ti      2.58696450     1.92924328     4.02991318    -0.65883463     0.52917796     0.38923662
Ti      4.55042147     1.32631918     6.83259548     0.65883463    -0.52917796    -0.38923662
Ti      6.15552380     1.32632029     1.40129770    -0.65726112    -0.52971970    -0.38753275
Ti      0.98186217     1.92924228     9.46121106     0.65726112     0.52971970     0.38753275
Ti      2.58695297     0.30146213     1.40134128    -0.65832761     0.52960245    -0.38962666
Ti      4.55043300     2.95410038     9.46116749     0.65832761    -0.52960245     0.38962666
Ti      0.98185064     0.30146092     6.83255190     0.65772983     0.52938262    -0.38833288
Ti      6.15553533     2.95410160     4.02995676    -0.65772983    -0.52938262     0.38833288
O       2.25902857     1.14633886     5.54305498     5.42535081    -0.84304113     1.90092629
O       4.87835740     2.10922355     5.31945368    -5.42535081     0.84304113    -1.90092629
O       1.30971091     1.14635199     0.11183560    -5.42523948    -0.84386414     1.90206554
O       5.82767512     2.10921047    10.75067275     5.42523948     0.84386414    -1.90206554
O       4.87834592     0.48144235     0.11180037    -5.42503097     0.84425675     1.90294666
O       2.25904005     2.77412011    10.75070798     5.42503097    -0.84425675    -1.90294666
O       5.82766364     0.48142922     5.54309022     5.42431234     0.84437245     1.90138034
O       1.30972228     2.77413325     5.31941844    -5.42431234    -0.84437245    -1.90138034
O       0.25933101     1.98021759     2.93423457     1.00149442    -0.53824188     0.60598559
O       6.87805496     1.27534482     7.92827409    -1.00149442     0.53824188    -0.60598559
O       3.82802155     1.27531449     2.49705430     1.00328725     0.53805136    -0.60066314
O       3.30936443     1.98024797     8.36545421    -1.00328725    -0.53805136     0.60066314
O       0.25931953     0.35243639     2.49701963     1.00141189    -0.53720701    -0.60169338
O       6.87806644     2.90312607     8.36548887    -1.00141189     0.53720701     0.60169338
O       3.30935295     0.35246672     7.92830870    -1.00198936    -0.53793540    -0.60717241
O       3.82803302     2.90309574     2.93419991     1.00198936     0.53793540     0.60717241
