# total energy = -39038.82179146 eV

CRYSTAL
PRIMVEC
        5.93188753     0.00000000     0.00000000
        0.00000000     9.29428401    -0.00002646
        0.00000000    -0.00002646     9.29428401
PRIMCOORD
46 1
Ti      4.44891576     6.97069300     6.97069300    -0.00000000     0.00000000     0.00000000
Ti      4.44891576     6.97070623     2.32355100    -0.00000000    -0.00000000    -0.00000000
Ti      4.44891576     2.32355100     6.97070623     0.00000000     0.00000000     0.00000000
Ti      4.44891576     2.32356423     2.32356423    -0.00000000     0.00000000     0.00000000
Ti      1.48297199     6.97069300     6.97069300    -0.00000000     0.00000000     0.00000000
Ti      1.48297199     6.97070623     2.32355100    -0.00000000     0.00000000     0.00000000
Ti      1.48297199     2.32355100     6.97070623     0.00000000     0.00000000     0.00000000
Ti      1.48297199     2.32356423     2.32356423    -0.00000000     0.00000000     0.00000000
Ti      2.96594376     4.63813353     4.64159196     0.00000000     0.04709003     0.01105138
Ti      2.96594376     4.76986658    -0.12273780     0.00000000    -0.04039385     0.04039385
Ti      2.96594376     0.01799847     4.62913031     0.00000000     0.11398013    -0.11398013
Ti      2.96594376     0.00553681     0.00899524     0.00000000    -0.01105138    -0.04709003
Ti      0.00000000     4.64159196     4.63813353     0.00000000     0.01105138     0.04709003
Ti      0.00000000     4.62913031     0.01799847     0.00000000    -0.11398013     0.11398013
Ti      0.00000000    -0.12273780     4.76986658     0.00000000     0.04039385    -0.04039385
Ti      0.00000000     0.00899524     0.00553681    -0.00000000    -0.04709003    -0.01105138
O       4.44891576     5.55499977     5.55499977    -0.00000000    -0.02248482    -0.02248482
O       4.42190972     5.51048641     0.93516170    -0.02047653    -0.07465175     0.06420433
O       4.47592179     0.93516170     5.51048641     0.02047653     0.06420433    -0.07465175
O       4.44891576     0.94203232     0.94203232    -0.00000000    -0.04011899    -0.04011899
O       1.48297199     5.55499977     5.55499977     0.00000000    -0.02248482    -0.02248482
O       1.50997803     5.51048641     0.93516170     0.02047653    -0.07465175     0.06420433
O       1.45596596     0.93516170     5.51048641    -0.02047653     0.06420433    -0.07465175
O       1.48297199     0.94203232     0.94203232     0.00000000    -0.04011899    -0.04011899
O       4.44891576     8.38638629     8.38638629     0.00000000     0.02248482     0.02248482
O       4.47592179     8.43092612     3.71194035     0.02047653     0.07465175    -0.06420433
O       4.42190972     3.71194035     8.43092612    -0.02047653    -0.06420433     0.07465175
O       4.44891576     3.70509620     3.70509620     0.00000000     0.04011899     0.04011899
O       1.48297199     8.38638629     8.38638629    -0.00000000     0.02248482     0.02248482
O       1.45596596     8.43092612     3.71194035    -0.02047653     0.07465175    -0.06420433
O       1.50997803     3.71194035     8.43092612     0.02047653    -0.06420433     0.07465175
O       1.48297199     3.70509620     3.70509620    -0.00000000     0.04011899     0.04011899
O       2.96594376     6.06434650     7.87703950     0.00000000     0.08131862    -0.08131862
O       2.96594376     6.06597779     3.23944920     0.00000000     0.07616202     0.04732811
O       2.96594376     1.40765281     7.87543468     0.00000000    -0.04732811    -0.07616202
O       2.96594376     1.45541515     3.19171330    -0.00000000    -0.07197677     0.07197677
O       0.00000000     6.04300493     7.89838108     0.00000000    -0.04733763     0.04733763
O       0.00000000     6.06031350     3.23640081    -0.00000000     0.03292556     0.00446781
O       0.00000000     1.41070119     7.88109898     0.00000000    -0.00446781    -0.03292556
O       2.96594376     7.89838108     6.04300493     0.00000000     0.04733763    -0.04733763
O       2.96594376     7.88109898     1.41070119    -0.00000000    -0.03292556    -0.00446781
O       2.96594376     3.23640081     6.06031350     0.00000000     0.00446781     0.03292556
O       0.00000000     7.87703950     6.06434650     0.00000000    -0.08131862     0.08131862
O       0.00000000     7.87543468     1.40765281     0.00000000    -0.07616202    -0.04732811
O       0.00000000     3.23944920     6.06597779     0.00000000     0.04732811     0.07616202
O       0.00000000     3.19171330     1.45541515    -0.00000000     0.07197677    -0.07197677
