# total energy = -19517.16387272 eV

CRYSTAL
PRIMVEC
        5.17600016     0.00000000     0.00000000
        0.00000000     5.50899976     0.00000000
        0.00000000     0.00000000     9.26300011
PRIMCOORD
23 1
Ti      1.86880401     3.19612999     3.52911002    -0.57277181     0.20438298     1.18270584
Ti      3.45225501     2.24384902     5.86470398    -0.33975315    -0.29410243    -1.89050457
Ti      4.39725302     2.19237902     1.39745102    -0.93776420    -1.38172189     1.11788239
Ti      0.77860198     3.44340399     7.80527802     1.69176131     0.61875446     0.53033882
Ti      1.96930202     0.35210401     1.43483998    -0.23666242    -1.60714705    -1.42401527
Ti      3.25108198     5.09666501     8.04471798    -0.32432961    -1.02096873    -0.78240087
Ti      0.76547802     0.50728302     5.93517001     0.03329554    -0.04379182    -2.93373135
Ti      4.48659100     4.88477101     3.27725101     0.65541249     0.97502953     2.79807990
O       1.59421499     1.93070500     4.77821799     1.09544873    -0.25256573     0.67494517
O       3.55522200     3.60085798     4.31698498    -0.04705866    -1.37095205     2.46007535
O       4.87135599     2.79941899     9.10098699     0.10702658     0.98891426     0.06175792
O       3.30463102     0.82174099     9.25260701     0.90043409     2.79870262     3.16815306
O       1.84125102     4.60691601     9.22083002    -1.63978773    -1.81521699    -0.54835172
O       4.42014602     0.85729900     4.72963100    -1.08855869    -0.05182112     0.00717672
O       0.92499300     4.68747198     4.45226301     0.50589739    -0.34717799     0.46425193
O       0.20009203     3.40002903     2.42784300     0.38659276    -0.51320241    -0.46119257
O       5.15106099     2.13222601     6.74880999    -0.42908514    -0.32949085    -0.30037978
O       2.66392500     1.80395202     2.33157200     0.57359122     1.17488017    -0.60365565
O       2.57668299     3.52056603     7.00201098    -0.41653378    -1.21458984     0.20654476
O       0.12372402     0.58359800     1.93088402     0.49878648     0.65545877    -0.65001420
O       4.99242799     4.88722300     7.26225898     0.22289904     0.49559009    -0.30297788
O       2.55501599     0.67428300     6.79915300    -0.89966713     1.14994457    -1.17667634
O       2.78464600     4.54569401     2.40938403     0.26082643     1.18109118    -1.59801191
