# total energy = -19077.21844931 eV

CRYSTAL
PRIMVEC
        5.17575250     0.00001323     0.00000000
        0.00001429     5.50856584     0.00000000
        0.00000000     0.00000000     9.26345890
PRIMCOORD
22 1
Ti      1.90736666     3.41273381     3.31568846     0.00696923     0.00842294    -0.00105235
Ti      3.42546981     2.27215929     5.92690985    -0.00152441     0.01007179    -0.00771383
Ti      4.46136922     2.25182859     1.13439947     0.00117679    -0.00620922     0.00160617
Ti      0.74350594     3.27516466     8.09216686    -0.01239221     0.00344554     0.00842988
Ti      1.81044214     0.62240661     1.24290990     0.00274311    -0.00297271     0.01420741
Ti      3.18834691     4.98559586     8.13624733    -0.02461575    -0.01327435     0.00698260
Ti      0.81243788     0.57928907     5.76752998     0.01083026     0.02388170    -0.00894101
Ti      4.46520726     4.94291717     3.50061810    -0.00560552     0.00967481     0.00412816
O       3.46793231     3.50412852     4.53486902     0.00108346     0.02206624    -0.00468404
O       0.95002850     1.96376897     0.15333841     0.00852630     0.00449815    -0.02215186
O       4.13409271     3.60938779     9.13247582     0.01061326    -0.00377284     0.02559920
O       3.55515863     0.82524718     0.07897369    -0.00426495    -0.00500080    -0.00192961
O       1.53726191     4.75693908     9.09549688     0.01960390    -0.02549790    -0.00697103
O       4.30604892     0.84131429     4.70555137    -0.00900709     0.03174876     0.00587189
O       0.93542925     4.59368142     4.58959293    -0.00051628    -0.00724203     0.00404563
O       0.16985225     3.30724361     2.50415096    -0.01167487     0.01099070     0.01064694
O       5.10110637     1.99783827     6.82321686    -0.02445583    -0.00159331    -0.01671655
O       2.73678379     2.08400415     2.17862680    -0.00407263    -0.00204428     0.00549702
O       2.33691641     3.37992836     7.06076196     0.01740020    -0.01100124     0.00375895
O       0.19270737     0.52873495     2.18078569     0.00504965    -0.02129466    -0.00777013
O       2.47279087     0.64915476     6.67500707     0.01478822    -0.01251408    -0.00312415
O       2.77306495     4.86758015     2.47109872    -0.00065537    -0.01238269    -0.00972006
