# total energy = -19961.54373722 eV

CRYSTAL
PRIMVEC
        7.60600008     0.00000000     0.00000000
        0.00000000     7.60600008     0.00000000
       -1.89786986    -1.89786986     4.85670466
PRIMCOORD
24 1
Ti      3.77307602     6.67228900     1.09281701     0.90791497     0.97814159     1.17496296
Ti      3.85547299     2.92046997     1.14711700    -0.86415452    -1.54232334     0.97274845
Ti      0.00311500     6.70349098     1.25691900    -1.16142378    -0.07271648    -0.23263659
Ti     -0.01406802     2.87520003     1.30034302     0.52130884    -0.29544557    -0.70677750
Ti      5.71891623     2.82534724     3.69953779    -0.99265959    -1.00644611     0.17636360
Ti      5.69705623    -1.00625779     3.67294981    -0.73804238     1.12804879    -0.81924273
Ti      1.92238924     2.85943721     3.66815584     0.78779787    -0.15267910    -1.36505600
Ti      1.89850922    -0.93231078     3.58500383     0.59505479    -0.23673930     0.20149434
O       3.81284200     4.75458102     0.77842201    -0.16634195     0.27505775     0.04652541
O       3.82197099     0.90576899     0.63937598    -0.26738249     0.55692840     0.87867612
O      -0.10792501     4.68614300     0.85018998     0.29071628     1.34068759    -0.38327526
O      -0.17193001     1.01643699     0.76895900     0.44286189    -1.13880552     0.62234346
O       5.74195221     4.75176924     4.15564080    -0.36566937    -0.63215094    -0.30906163
O       5.79430224     0.94369920     4.11930384     0.16968207     0.05282616    -0.28284896
O       2.01107125     4.77160021     3.97126079    -0.20382505    -1.21479270    -0.08465540
O       1.87154324     0.92836523     4.07119480    -0.25401609     0.30361937    -0.31631060
O       3.83118423     2.61408323     3.21778181     0.09818738     0.83821131     0.14057229
O       3.73703122    -0.95727276     3.06596382     0.80082643    -0.05130998     1.10220482
O       0.01441421     2.80450221     3.28930879    -0.67718691     0.29447164    -0.23435923
O      -0.08087278    -1.18079775     3.18454382     1.16976727     0.60983504     0.23482562
O       5.67977801     6.81611699     1.67433799     0.01386879    -0.59205149    -0.38051287
O       5.62816497     2.92047299     1.58089899     1.10938489    -0.12725911     0.86412187
O       1.90742702     6.65695402     1.60113600    -1.17998458     0.29957940    -0.80764294
O       1.89822002     2.76766200     1.71224999    -0.03668477     0.38531260    -0.49245900
