# total energy = -4975.89479556 eV

CRYSTAL
PRIMVEC
        3.93625830     0.00000000     0.00000000
       -0.00000675     2.90940848     0.00000000
       -1.96815324    -1.45474230     4.46884599
PRIMCOORD
6 1
Ti     -0.00016999     2.18216349     1.11721124    -0.00702786    -0.01352426    16.27893902
Ti      1.96826811    -0.72749731     3.35163409     0.00702786     0.01352426   -16.27893902
O       0.00004106     0.72734523     0.72793837     0.00653909     0.01382663    -5.87918129
O       1.96805692     0.72732090     3.74090696    -0.00653909    -0.01382663     5.87918129
O      -0.00001762    -0.72734243     2.96236123     0.00019386    -0.00020209     2.50883377
O       1.96811555     2.18200847     1.50648415    -0.00019386     0.00020209    -2.50883377
