# total energy = -19954.94659070 eV

CRYSTAL
PRIMVEC
        5.93400000     0.00000000     0.00000000
        0.00000000     9.29699974     0.00000000
        0.00000000     0.00000000     4.64899994
PRIMCOORD
24 1
Ti      4.34995098     6.59715101     1.89171500     1.96426955     0.22403444     3.15486328
Ti      4.46816500     2.49747002     2.33713598    -0.90967540    -0.95983173     0.99654427
Ti      1.41448100     6.76354302     1.97840397    -0.89594057     1.71863578     3.44119120
Ti      1.44132600     2.62182901     2.26413498     1.09686850    -2.49335418     0.88632361
Ti      2.96233001     4.67250901     4.50995698     0.82583864    -4.40296463    -0.65823582
Ti      3.00998697     9.01040100     0.55878302     0.34568675     2.58087071    -3.94932442
Ti      0.04932001     4.78770598     4.50545098    -0.74828900    -3.75857806    -0.80240508
Ti      0.04546400     0.01665501     0.46095101    -0.39807351     0.83590914    -2.40656708
O       4.39176900     5.73133200     0.33830402     1.14626918     2.69299630     1.42573688
O       4.51208099     0.99776000     1.21638498    -0.57813924    -2.22373484    -2.17105394
O       1.55988801     5.71931602     0.62252999    -0.54999517     0.22434066    -1.31260444
O       1.53066298     0.96533101     1.26140002     0.28614820    -1.60049406    -1.90908157
O       4.50160201     8.41268900     4.09047802    -1.24711019     0.58455723     1.78356515
O       4.42458699     3.66907999     3.87455200     1.32934593     1.75889695    -0.26077321
O       1.48815898     8.25580900     4.16448901     1.03950896     0.91592370     1.42318815
O       1.55679798     3.76413203     3.81037100    -2.12612364     0.48813800    -0.58584921
O       2.92369002     5.70324401     2.84468999     0.54899809     0.52595817    -0.62486546
O       3.01045101     1.87591801     3.15339798    -1.13280148    -1.43927143     0.72585869
O       0.02142797     5.75653703     2.78728500    -0.64371988     0.49051679     0.25371938
O       0.00459500     1.60479298     3.12635898     0.78191647     0.79471774     0.82437208
O       3.00222400     7.81819799     1.92599998    -0.29649433     1.47070755    -0.33913840
O       2.95149500     3.27984700     1.27596801    -0.13150966     2.33137025    -1.09807589
O       5.85272600     7.90263801     1.66214601    -0.17915711    -0.85560380     0.69048004
O       5.90919302     3.58190402     1.27887197     0.47217916     0.09625880     0.51213129
