# total energy = -19957.65347902 eV

CRYSTAL
PRIMVEC
        7.60600008     0.00000000     0.00000000
        0.00000000     7.60600008     0.00000000
       -1.89786986    -1.89786986     4.85670466
PRIMCOORD
24 1
Ti      3.62089999     6.48545302     1.12905501     1.74725499     2.23702153     1.62897418
Ti      3.69805901     2.78908198     1.20339198     2.04207965    -3.23176552     1.39300236
Ti      0.04504198     6.83909800     1.20752898    -3.12789317     1.26856966    -0.68069827
Ti      0.03347401     3.01565198     1.24619501    -2.01660437    -1.44183251    -1.06086173
Ti      5.64350323     2.91380022     3.62774881     0.41723518     0.02349064     0.13298728
Ti      5.84544621    -0.80544476     3.58598583     0.06812835    -1.19857263    -0.21732283
Ti      1.77684322     2.52195924     3.64980079    -0.15247342     0.70676464    -0.04788116
Ti      2.09200822    -0.99759977     3.63747583    -0.20076107    -2.55714302    -0.25227005
O       3.83926599     4.54809600     0.65426999    -0.02651683     1.00557990     1.69803840
O       3.84283698     0.83368701     0.74342403    -0.27926150     2.03467924     0.71010065
O      -0.02846100     4.92682202     1.00296700     0.08730287    -2.65433590    -0.96761909
O       7.30190700     1.14278701     0.73562702     2.35633207    -1.36985753     0.26657079
O       5.76291123     4.82664221     4.13722781     0.24538463    -0.72334595    -1.80813797
O       5.56177625     0.90212524     4.08439983     0.89563281     4.44085705     1.14372584
O       1.75494322     4.77984024     4.21686179     0.23814492    -1.94546218    -2.95256726
O       2.00707924     0.69811121     4.01368683    -0.23837452     4.58984945     1.02924614
O       3.88101421     2.73470722     3.11904580    -1.35939648     0.46497878     0.55118199
O       3.94740225    -0.76571175     3.13586480    -2.86346205    -1.73988929    -0.39690597
O      -0.04574975     2.57802424     3.35961883     1.21912758     0.55757607     0.22462580
O       0.12658523    -0.64952475     3.07761683    -0.21274730    -0.69611847     2.60590684
O       5.79378200     6.90794999     1.69578199    -0.97458421    -1.36954129    -0.88739345
O       5.82093499     2.66809301     1.70128703    -1.60707248     1.92684302     0.51211560
O       1.84017002     6.79460001     1.57351702     3.64019363    -0.91167135     0.04368512
O       1.88554199     2.73956798     1.83524798     0.10233097     0.58332542    -2.66850371
