# total energy = -19072.39676897 eV

CRYSTAL
PRIMVEC
        7.60600008     0.00000000     0.00000000
        0.00000000     7.60600008     0.00000000
       -1.89786986    -1.89786986     4.85670466
PRIMCOORD
22 1
Ti      3.88536802     6.53295700     1.31125201     0.60355306     2.03116968     0.13157111
Ti      3.56413800     2.60954500     1.20701701     2.65921842     1.52884767     2.15092065
Ti      0.07867400     6.87010498     1.09284802    -0.94452492    -2.39497140    -0.97718489
Ti     -0.14999201     2.69389803     0.96932799    -3.68900270     1.93301212     2.58069202
Ti      5.80843820     2.89173925     3.71396084    -1.35422033     2.15502851    -3.08620451
Ti     -1.34502077    -0.59685077     3.67166883     0.51889406    -5.40898188    -1.39169778
Ti      1.84093124     2.87175423     3.84609984     1.46318296     1.68552201    -0.57136644
Ti      1.76416821    -0.94696777     3.76587683     0.02167287    -0.13637213    -1.18253537
O       3.82679598     4.82841998     0.98051200    -0.96595019    -1.99057709    -0.51612421
O       4.09085400     0.95074001     0.78766600    -1.07432814    -0.63126288     0.56413290
O      -0.22923699     4.63998398     0.64054699     0.91883162     0.02902879     0.77615874
O       7.02015298     0.83783602     0.54036898     1.18979206     1.65962200     0.01991166
O       5.86820221     4.79288721     3.90600482     0.62171097    -0.28790350     1.13251146
O       5.35398025     0.85406224     3.75324579     0.08902139     2.24340635     1.20364696
O       2.16956121     4.77623421     4.26425681    -0.96402597     0.47625076    -1.05312322
O       1.84371820     1.11946124     4.13040381    -0.32051461    -3.43382807     0.05982574
O       3.77661923     2.87356323     3.22970883    -3.14379622    -0.02364927    -0.63359770
O       0.08877123     2.97635924     3.10808479     0.08160042    -0.53132689     0.17905658
O       5.84595999     6.54750900     1.90164401    -0.09867229     0.59164834     0.28953383
O       5.48601601     2.74974099     1.65155601     1.97693584     0.52578925    -0.05671779
O       1.85893401     6.72803301     1.74970399     0.85146458     0.05518952     0.48377458
O       1.60571200     2.40808400     1.14380202     1.55915713    -0.07564240    -0.10318406
