# total energy = -19903.32641107 eV

CRYSTAL
PRIMVEC
        6.70338742     0.00000000     0.00000000
        2.74404347     6.58561565     0.00000000
        0.00000000     0.00000000    12.25478443
PRIMCOORD
24 1
Ti      4.05577320     3.90262986     4.54643761    -0.28508248    -2.02637740     0.47347242
Ti      5.39165780     2.68298598     7.70834695     0.28508248     2.02637740    -0.47347242
Ti      6.89916550     2.68298821     1.58090567    -0.01934113    -1.10891026     0.14984909
Ti      2.54826555     3.90262788    10.67387895     0.01934113     1.10891026    -0.14984909
Ti      2.68375160     0.60982201     1.58095480    -0.28508248    -2.02637740    -0.47347242
Ti      6.76367944     5.97579402    10.67382983     0.28508248     2.02637740     0.47347242
Ti      1.17624379     0.60981958     7.70829775     0.01934113     1.10891026     0.14984909
Ti      8.27118725     5.97579645     4.54648674    -0.01934113    -1.10891026    -0.14984909
O       3.08788878     2.31890729     6.25352271     1.79149675     2.01433049    -0.76156952
O       6.35954215     4.26670855     6.00126185    -1.79149675    -2.01433049     0.76156952
O       2.19630393     2.31893390     0.12616988    -0.26207213    -0.71871847     1.54882361
O       7.25112717     4.26668205    12.12861428     0.26207213     0.71871847    -1.54882361
O       4.98752052     0.97390057     0.12613009    -1.79149675    -2.01433049    -0.76156952
O       4.45991048     5.61171526    12.12865406     1.79149675     2.01433049     0.76156952
O       5.87910546     0.97387402     6.25356243     0.26207213     0.71871847     1.54882361
O       3.56832542     5.61174191     6.00122207    -0.26207213    -0.71871847    -1.54882361
O       1.91263239     4.00574495     3.31032303     0.61575475     2.67315201     2.54985497
O       7.53479854     2.57987090     8.94446153    -0.61575475    -2.67315201    -2.54985497
O       4.67019172     2.57980961     2.81710823     0.55299899     2.09662279     1.61333287
O       4.77723921     4.00580624     9.43767612    -0.55299899    -2.09662279    -1.61333287
O       0.54061075     0.71293690     2.81706905     0.61575475     2.67315201    -2.54985497
O       8.90682025     5.87267893     9.43771524    -0.61575475    -2.67315201     2.54985497
O       3.40521758     0.71299825     8.94450058    -0.55299899    -2.09662279     1.61333287
O       6.04221335     5.87261759     3.31028391     0.55299899     2.09662279    -1.61333287
