# total energy = -4989.76736284 eV

CRYSTAL
PRIMVEC
        4.15303763     0.00000000     0.00000000
       -0.00000839     3.75751065     0.00000000
       -2.07654812    -1.87879304     5.06046078
PRIMCOORD
6 1
Ti     -0.00018154     2.81827418     1.26511495    -0.00160411    -0.00049725     1.85994623
Ti      2.07666234    -0.93955646     3.79534523     0.00160411     0.00049725    -1.85994623
O       0.00004219     0.93937059     0.82430762    -0.00013935     0.00016635    -0.45177950
O       2.07643844     0.93934702     4.23615266     0.00013935    -0.00016635     0.45177950
O      -0.00002129    -0.93935745     3.35453791    -0.00162622    -0.00017329    -0.83965961
O       2.07650192     2.81807501     1.70592238     0.00162622     0.00017329     0.83965961
