# total energy = -19517.32172222 eV

CRYSTAL
PRIMVEC
        5.17600016     0.00000000     0.00000000
        0.00000000     5.50899976     0.00000000
        0.00000000     0.00000000     9.26300011
PRIMCOORD
23 1
Ti      1.77806101     3.25153797     3.47170302     0.21586784    -0.97154028     2.62232591
Ti      3.39003700     2.27855400     5.78523399    -0.03691797     0.35940513    -2.01191648
Ti      4.38671800     2.04252999     1.59168399     0.10837718    -1.18467324    -1.70238280
Ti      1.03764600     3.29815500     7.82298699    -2.18207626    -0.63373526     1.32017994
Ti      1.98318499     0.28231702     1.27680099    -0.79469871     0.90995925    -1.25017444
Ti      3.34580497     5.37446698     7.83797001     0.22336827    -1.27837353     1.37242041
Ti      0.66232502     0.47674002     5.95818499    -0.08247202     0.45634038    -3.04806244
Ti      4.40495499     4.91125299     3.30998999     0.11039447     0.54611666     3.64187899
O       1.52220498     2.07119002     4.87929900     0.54228622     0.00917139    -0.74782569
O       3.40800098     3.64686598     4.53444201     0.40427527     0.17535367    -0.45866132
O       0.23848098     2.49456500     0.11578102     0.91167521     0.58883504    -0.33613767
O       3.44897602     0.90705299     0.21660902    -0.03739285    -0.21258274    -0.98952619
O       1.83558602     4.77634502     8.84317501    -0.64009385     0.36442521     1.75422397
O       4.29832402     0.77457801     4.63966700    -1.10661581     0.78962104     0.68103226
O       0.90805498     4.79429598     4.46163701     0.61912341    -0.74155091     0.11421539
O       0.06391800     3.29235098     2.65445199     0.00224020     0.12831841    -0.31221277
O       4.95994302     2.02552398     6.75266102     0.57071107    -0.00187202     1.04165609
O       2.54804799     1.79389400     2.31079402     0.13176729     1.24314607     0.10309330
O       2.69605400     3.53740699     7.13026000     1.14279793    -0.05571943    -0.74740865
O       0.14101198     0.47740900     2.10495698     1.06073446     0.80088890    -1.50687296
O       5.07266798     4.69380099     7.20300600    -0.26520219     0.65554413     0.11537624
O       2.42903799     0.99595402     6.80391898    -1.41326677    -0.81279723     0.31194101
O       2.75514198     4.57382598     2.28677699     0.51511788    -1.13428089     0.03283763
