# total energy = -19946.58172074 eV

CRYSTAL
PRIMVEC
        4.73581354     0.00000000     0.00000000
        0.00002596     5.04033774     0.00000000
        0.00000000     0.00000000     8.47606490
PRIMCOORD
24 1
Ti      1.71652001     2.98689948     3.14455968    -0.06452880     0.93866666    -1.11129265
Ti      3.01931949     2.05343831     5.33150546     0.06452880    -0.93866666     1.11129265
Ti      4.08434388     2.05344004     1.09343902    -0.06105370    -0.93803803     1.11462968
Ti      0.65149562     2.98689794     7.38262622     0.06105370     0.93803803    -1.11462968
Ti      1.71650713     0.46673071     1.09347301    -0.06445012     0.93647274     1.11376554
Ti      3.01933237     4.57360722     7.38259223     0.06445012    -0.93647274    -1.11376554
Ti      0.65148274     0.46672883     5.33147146     0.06099250     0.93603359     1.11134381
Ti      4.08435676     4.57360910     3.14459367    -0.06099250    -0.93603359    -1.11134381
O       1.49892403     1.77478865     4.32527113    -2.03300519    -1.77771512    -0.25494117
O       3.23691547     3.26554919     4.15079401     2.03300519     1.77771512     0.25494117
O       0.86902871     1.77480895     0.08726584     2.03320342    -1.77845483    -0.25436062
O       3.86681083     3.26552889     8.38879905    -2.03320342     1.77845483     0.25436062
O       3.23690259     0.74538027     0.08723834     2.03347159     1.77795295    -0.25516023
O       1.49893691     4.29495752     8.38882656    -2.03347159    -1.77795295     0.25516023
O       3.86679795     0.74535997     4.32529863    -2.03300288     1.77842783    -0.25433310
O       0.86904150     4.29497787     4.15076651     2.03300288    -1.77842783     0.25433310
O       0.17207883     3.06581915     2.28959664    -0.73129040     0.43921555    -0.49055047
O       4.56376067     1.97451864     6.18646850     0.73129040    -0.43921555     0.49055047
O       2.53998940     1.97447167     1.94846287    -0.73159225    -0.43971563     0.49156091
O       2.19585010     3.06586612     6.52760212     0.73159225     0.43971563    -0.49156091
O       0.17206595     0.54565023     1.94843581    -0.73140764     0.43936441     0.49126626
O       4.56377355     4.49468756     6.52762919     0.73140764    -0.43936441    -0.49126626
O       2.19583722     0.54569720     6.18649552     0.73169766     0.43979250     0.49069599
O       2.54000228     4.49464059     2.28956957    -0.73169766    -0.43979250    -0.49069599
