# total energy = -39022.96616171 eV

CRYSTAL
PRIMVEC
        7.60600008     0.00000000     0.00000000
        0.00000000     7.60600008     0.00000000
       -3.79573973    -3.79573973     9.71340985
PRIMCOORD
46 1
Ti      1.81446947     3.63692247     6.57429061    -0.03737254     5.08490578    -6.30740793
Ti      3.74855897     0.10586699     1.59328899     1.38779741    -1.16994390    -2.51216798
Ti      2.05546843     0.82781743     6.45069364    -0.20411584    -0.19928422    -3.89556880
Ti      3.85908701     3.38351298     1.30947498     0.17732931    -2.71185715    -1.65637366
Ti     -1.91724357     3.84893644     6.28572364    -0.94954423     1.92152186    -0.45770127
Ti     -0.02025902     0.00522801     1.32913000    -1.13226052    -0.42045137    -0.75692971
Ti     -1.90941953     0.61654642     6.14210065    -0.29158917    -0.83023240    -1.74696214
Ti      0.06016502     3.30595301     1.28333500    -2.78438363     1.30158675    -1.75499273
Ti      3.85421043     1.67812547     8.43521565    -1.65282682    -0.72884785     3.36154559
Ti      5.75628598     2.08045401     3.33111300    -0.28326343    -1.84114812     1.39023019
Ti      4.04502545    -2.12195357     8.32465861    -1.49839757    -0.67277413    -0.87213009
Ti      5.57390298     5.86637200     3.73488498     0.93764336     1.96541626    -0.77137674
Ti      0.04648648     1.87940243     8.25067064    -1.97267758     4.27154984     2.54363135
Ti      1.88264602     1.58179901     3.18173500    -0.19483441    -0.36702151     3.16906528
Ti      0.05669245    -1.49812757     7.93354360     0.86714343    -0.41687162     2.16991700
Ti      1.71331501     6.09426202     3.58786499    -0.58878464    -0.10178898     3.21839629
O       1.30492247     4.84175546     4.97452762     0.94584004     1.29301829    -2.51668310
O       3.31635102     1.85840002     0.38033498     1.48054999     1.09450257    -0.55419455
O       5.37420646     2.23604546     5.33019961     0.29601225     1.98520502     0.23326136
O       0.13363202     4.98515302     0.68535402     0.28217816     2.78084682     0.18062881
O      -1.63756355    -2.00760853     5.47959063     0.13168295     0.62790913     0.32950730
O       0.24965598     1.68720398     0.48443097     0.67957136     0.52355059    -0.24743843
O       3.90006745     3.64568946     9.11965461    -0.34052320    -1.54834461    -0.02664769
O       5.53805101     4.05285097     3.64203099    -0.11722512     0.52923427    -0.18960556
O       3.49080843    -0.24784355     8.80520363     0.37857888    -1.87943160    -1.36025446
O      -1.60294002     0.34831399     4.34655297    -0.62195060    -1.42050623     0.79085697
O      -0.44314753     3.01161647     9.69317062     1.97981316    -0.10521061     0.78704582
O       2.14585746     2.25404044     4.95249664    -0.36167542     0.29420810     1.66969687
O       0.50468947     0.37379245     9.07069662    -0.30086829    -3.02721824     1.56346527
O       1.69519403     0.00945899     4.63692798     0.04159609    -0.98579603    -0.41491527
O       2.10006045     2.52688445     7.88228665     0.11931980    -4.81643391     2.30990822
O       3.88962699     1.64231101     2.84172898    -0.71530482     1.35338858     0.00883637
O       1.80260843    -2.25875256     7.45797164    -1.49639905     1.32944466     1.84922087
O       3.75201799    -1.06993099     3.12269300     0.62143638    -2.54547124     0.73892041
O      -2.08248256     1.91492043     8.10239062     2.93962741    -0.81657804    -2.45691341
O      -0.02089001     1.63341200     2.92065900    -0.59644010     0.87786236    -0.08302995
O      -1.78291156    -2.30386455     7.83693764    -0.11087886     0.52461451     0.29892788
O       0.08233199    -1.04917502     2.81670202    -1.06688274    -3.64963524     2.86596862
O       3.73200345     4.11913344     6.40734762     2.15673495    -0.04900859     1.34090253
O       5.80349299    -0.05601299     1.93563502    -1.78311958     0.31689167    -1.79778207
O       3.81884043     0.24988443     6.27380361     1.17011720     0.58237077     1.35325154
O       5.67343201     2.99668700     1.59158599     0.16078297     0.05923438    -0.96297079
O      -0.05670558     3.39660345     6.87033761    -1.37813392     0.90442932    -0.02491760
O       1.89901400    -0.13058200     1.93994200     0.19575847     2.14888717     0.30084386
O       0.08277242     0.97661445     6.67143464    -0.49381628    -3.22512770    -1.83195308
O       1.62473101     3.13352197     2.10182002     4.02375454     1.75840433     0.72488835
