# total energy = -19517.67197275 eV

CRYSTAL
PRIMVEC
        5.17600016     0.00000000     0.00000000
        0.00000000     5.50899976     0.00000000
        0.00000000     0.00000000     9.26300011
PRIMCOORD
23 1
Ti      1.81200498     3.18460499     3.46954498     0.05550217     0.33992825     1.83837210
Ti      3.34324201     2.21729898     5.82697703     0.94177101    -0.13437799    -2.31047566
Ti      4.39375299     2.06159498     1.47624101    -0.13348838     0.27002841    -1.69341222
Ti      0.91475701     3.39562802     7.72488399    -1.81849669     0.01898915     2.34216092
Ti      1.93744999     0.25721899     1.40191701     2.69904534     0.39411324    -2.81496331
Ti      3.29864501     5.12647298     7.85127898    -1.70072238     1.57575978     2.23036391
Ti      0.69370798     0.55017500     5.92031299     0.22997086    -0.59922590    -2.75341751
Ti      4.49894703     4.96991298     3.34128400     0.18512155    -0.20097550     3.20351371
O       1.66021800     1.83736898     4.80437501     0.05407803     0.92664058    -0.81699404
O       3.50807702     3.52133899     4.51442901    -0.04708874     0.12289286    -0.28704912
O       5.16997299     2.92527797     0.06425101    -0.04465751    -0.67996114    -0.42533750
O       3.48682902     0.92401698     0.22315002    -0.66676392    -1.20156926    -0.86493819
O       1.82299599     4.59965099     9.04647300     0.81619057     0.55874618     0.47297337
O       4.28960001     0.77204400     4.77681303    -0.64232403     0.20670854    -0.29539004
O       0.94967298     4.73554598     4.48052600     0.26143141    -0.69069241     0.37650606
O       0.09478602     3.42539799     2.55880500     0.85855646    -1.13220292     0.02356083
O       5.05426701     2.01345398     6.80467698    -0.52316827     1.40857785     0.43859977
O       2.58137399     2.00903302     2.20279301     0.02790008    -0.14491694    -0.15711400
O       2.60022900     3.54837699     6.94591602     0.68844552     0.22233340     0.52471556
O       0.27991698     0.52455399     2.05195099    -1.29409404     1.23869034    -0.10045175
O       5.06018803     4.93275902     7.30604601     0.28308782    -0.93737057    -0.23728488
O       2.37946699     0.88878002     6.85511201     0.21288639    -1.00298489     1.23657972
O       2.85175102     4.65416498     2.42811600    -0.44318302    -0.55913081     0.06948255
