# total energy = -19074.13262678 eV

CRYSTAL
PRIMVEC
        5.17600016     0.00000000     0.00000000
        0.00000000     5.50899976     0.00000000
        0.00000000     0.00000000     9.26300011
PRIMCOORD
22 1
Ti      1.80217001     3.38361199     3.41067702     1.49539940     1.45211127    -1.50727816
Ti      3.74474900     2.28052899     5.86753598    -2.70422997     0.80593598    -0.15647380
Ti      4.28133003     2.38418402     1.26824001     0.76952066    -0.42988115    -1.20871461
Ti      0.75750803     3.16177401     8.08156998     0.62602606     1.71370671    -0.87618677
Ti      1.76902002     0.61474098     1.18407500     0.46576348    -1.37151178    -0.48444332
Ti      3.25919803     4.96873101     7.98049602    -1.00749332     0.38731035    -0.01240275
Ti      0.74303799     0.10306902     6.07135500     0.98632002     0.98540419    -0.75799080
Ti      4.46561701     5.04536302     3.41167399    -0.75272158    -0.05623956    -0.48938576
O       3.46057902     3.59183699     4.34496602     0.60981782    -1.88432570     1.79981145
O       0.83019602     2.03984198     0.19201599    -0.48415716    -1.28796041     0.72950786
O       4.18146502     3.74412701     8.97615101     1.71442045    -1.59444039     1.11380410
O       3.32765800     0.83865900     0.23012199     1.52417674     0.40878319    -1.80411830
O       1.73698998     4.60193100     8.94749802    -1.99457284     0.56140753     0.96709356
O       4.29658801     0.61297099     4.95482201    -0.04265153     0.68813262     0.11649287
O       1.12156800     4.89878600     4.31220101    -0.70998006    -0.40450127     1.57966014
O       0.12665498     3.50318298     2.52581498    -0.43436721    -0.55575110    -0.82374808
O       0.07362401     1.83106198     6.84250500    -0.00978151    -0.63978352     0.13052956
O       2.67301299     2.03574102     2.06906098    -1.07778859     1.19372199     2.41013577
O       2.34395602     3.44538301     6.87336699     0.14618115    -0.11277943    -0.16867600
O       5.15734899     0.84654802     2.26779598     0.33338376    -0.10201550    -0.39665992
O       2.42533602     0.73301299     6.77491001     0.22513462     0.34602793    -0.98799381
O       2.66756098     4.76984000     2.27178699     0.32159910    -0.10335196     0.82703703
