# total energy = -19903.77759099 eV

CRYSTAL
PRIMVEC
        7.65493779     0.00000000     0.00000000
        0.00002410     3.09030543     0.00000000
        0.00000000     0.00000000    11.84793513
PRIMCOORD
24 1
Ti      2.77456116     1.83131210     4.39549945    -0.44327815     0.31995642     1.17463051
Ti      4.88040095     1.25899323     7.45243579     0.44327815    -0.31995642    -1.17463051
Ti      6.60189941     1.25899428     1.52842083    -0.44188409    -0.31998779    -1.17393529
Ti      1.05306270     1.83131121    10.31951451     0.44188409     0.31998779     1.17393529
Ti      2.77454921     0.28615944     1.52846833    -0.44337148     0.31989523    -1.17419188
Ti      4.88041290     2.80414600    10.31946701     0.44337148    -0.31989523     1.17419188
Ti      1.05305076     0.28615833     7.45238829     0.44229213     0.31980319    -1.17360516
Ti      6.60191135     2.80414711     4.39554695    -0.44229213    -0.31980319     1.17360516
O       2.42284473     1.08814906     6.04591059     4.96653163    -0.29735513     0.60701917
O       5.23211743     2.00215627     5.80202464    -4.96653163     0.29735513    -0.60701917
O       1.40468606     1.08816150     0.12198114    -4.96254230    -0.29790869     0.60806972
O       6.25027615     2.00214382    11.72595378     4.96254230     0.29790869    -0.60806972
O       5.23210549     0.45700355     0.12194270    -4.96523888     0.29722812     0.60616119
O       2.42285662     2.63330177    11.72599221     4.96523888    -0.29722812    -0.60616119
O       6.25026421     0.45699111     6.04594908     4.96574693     0.29758807     0.60798873
O       1.40469784     2.63331427     5.80198616    -4.96574693    -0.29758807    -0.60798873
O       0.27813628     1.87969894     3.20042284     0.11664894    -0.11653015     1.33883793
O       7.37682583     1.21060639     8.64751239    -0.11664894     0.11653015    -1.33883793
O       4.10561525     1.21057767     2.72358240     0.11506385     0.11604781    -1.33769893
O       3.54934691     1.87972771     9.12435262    -0.11506385    -0.11604781     1.33769893
O       0.27812433     0.33454622     2.72354456     0.11700323    -0.11591052    -1.33665892
O       7.37683778     2.75575911     9.12439046    -0.11700323     0.11591052     1.33665892
O       3.54933497     0.33457494     8.64755012    -0.11516361    -0.11675358    -1.33868161
O       4.10562719     2.75573038     3.20038506     0.11516361     0.11675358     1.33868161
