# total energy = -19940.75920375 eV

CRYSTAL
PRIMVEC
        5.90035796     0.00000000     0.00000000
        0.00002322     4.18651004     0.00000000
        0.00000000     0.00000000     9.16696473
PRIMCOORD
24 1
Ti      2.13860982     2.48092195     3.40087853    -0.32542079     2.16484035    -3.46661068
Ti      3.76177145     1.70558808     5.76608630     0.32542079    -2.16484035     3.46661068
Ti      5.08868709     1.70558954     1.18256724    -0.32361922    -2.16586957     3.46953634
Ti      0.81169419     2.48092070     7.98439764     0.32361922     2.16586957    -3.46953634
Ti      2.13859821     0.38766704     1.18260398    -0.32542079     2.16484035     3.46661068
Ti      3.76178306     3.79884315     7.98436089     0.32542079    -2.16484035    -3.46661068
Ti      0.81168258     0.38766548     5.76604950     0.32361922     2.16586957     3.46953634
Ti      5.08869870     3.79884471     3.40091528    -0.32361922    -2.16586957    -3.46953634
O       1.86750877     1.47414137     4.67783195     1.66875996    -2.10270602     2.88484232
O       4.03287251     2.71236871     4.48913288    -1.66875996     2.10270602    -2.88484232
O       1.08272118     1.47415824     0.09437904    -1.66969918    -2.10359048     2.88572627
O       4.81766020     2.71235184     9.07258548     1.66969918     2.10359048    -2.88572627
O       4.03286095     0.61911365     0.09434928    -1.66875996     2.10270602     2.88484232
O       1.86752033     3.56739639     9.07261524     1.66875996    -2.10270602    -2.88484232
O       4.81764859     0.61909682     4.67786166     1.66969918     2.10359048     2.88572627
O       1.08273264     3.56741331     4.48910312    -1.66969918    -2.10359048    -2.88572627
O       0.21438789     2.54647272     2.47622589     1.64400871    -0.49767217     1.55760110
O       5.68599339     1.64003736     6.69073894    -1.64400871     0.49767217    -1.55760110
O       3.16457347     1.63999832     2.10728569     1.64592881     0.49822418    -1.55741341
O       2.73580781     2.54651176     7.05967899    -1.64592881    -0.49822418     1.55741341
O       0.21437628     0.45321766     2.10725638     1.64400871    -0.49767217    -1.55760110
O       5.68600500     3.73329238     7.05970825    -1.64400871     0.49767217     1.55760110
O       2.73579625     0.45325669     6.69076815    -1.64592881    -0.49822418    -1.55741341
O       3.16458503     3.73325339     2.47619663     1.64592881     0.49822418     1.55741341
