# total energy = -19961.40368778 eV

CRYSTAL
PRIMVEC
        7.60600008     0.00000000     0.00000000
        0.00000000     7.60600008     0.00000000
       -1.89786986    -1.89786986     4.85670466
PRIMCOORD
24 1
Ti      3.81646400     6.52775699     1.23250398     0.72578515    -0.01191167    -0.33678224
Ti      3.83111100     2.71523900     1.27537099     0.53711496     0.09551523    -1.45860562
Ti      0.07269498     6.73366599     1.20961299    -0.68515554     0.59728394    -0.84580095
Ti      0.02743800     2.90663300     1.24685199    -1.35723187    -0.55186693    -0.43465004
Ti      5.69393525     2.89371223     3.68262582    -0.67433145    -0.18650044    -1.33119198
Ti      5.72169324    -0.85920176     3.59652482    -0.93342932     0.30337075    -0.14259755
Ti      1.83748423     2.80343020     3.58784081     1.04307997    -0.49654320     1.97559166
Ti      1.84181624    -0.99306276     3.59757380     1.52159870     0.20772516     1.48682760
O       3.83920598     4.65244103     0.83400002    -0.08982281     0.63831722    -0.34368540
O       3.84239798     0.84526800     0.78546203    -0.20748630     0.96043389     0.02152451
O      -0.04373502     4.74769298     0.70432301     0.30937504     0.88349077     1.46482821
O      -0.00427200     1.07330497     0.72053399     0.14762406    -0.70152961     0.50821472
O       5.78784924     4.90614220     4.07815882    -0.12814409    -1.11669865     0.11238965
O       5.49500525     1.04221825     3.96273780     0.71579050    -0.48919550     0.65196875
O       1.80839721     4.75171722     4.10696580     0.07451805    -0.89235670    -0.81293581
O       1.93965021     0.91297321     4.08145782    -0.20984889     0.29888597    -0.24810820
O       3.77240222     2.88054223     3.12501884    -0.15342112     0.48036684     1.55522540
O       3.71812721    -0.92839878     3.23199683     1.42465445    -0.30106755    -0.55331703
O       0.00219524     2.86637520     3.31410181    -0.91917589     0.10147299    -0.81608130
O       0.01815824    -0.70180080     3.27043479    -0.43936544    -0.34157581    -1.19399838
O       5.76899597     6.64900102     1.57554800     0.24339871    -0.12335283     0.68016194
O       5.67232101     2.78825102     1.68142198     1.42414922     0.23696247    -0.13401237
O       1.97111398     6.56445199     1.51972901    -2.39846681     0.02639213     0.77472381
O       1.83675100     2.71684299     1.67053902     0.02879097     0.38238155    -0.57968885
