# total energy = -19071.98552600 eV

CRYSTAL
PRIMVEC
        5.17600016     0.00000000     0.00000000
        0.00000000     5.50899976     0.00000000
        0.00000000     0.00000000     9.26300011
PRIMCOORD
22 1
Ti      1.85538498     3.35990300     3.11845302    -1.15452371     2.02714359     1.12179304
Ti      3.53454900     2.23414603     6.06996501    -0.75052766     2.46508849    -0.09269396
Ti      4.30196402     2.21749700     1.19908898     0.89049445     0.53692933    -0.32742137
Ti      0.86303301     2.90786000     7.92925298     0.70862046     2.54840512    -0.04049206
Ti      1.74989503     0.46917998     1.30796000    -0.44369852    -0.33155956    -1.53706543
Ti      3.36828998     5.07046401     8.05802303    -1.06485079    -1.01685728     1.76517996
Ti      1.40856998     0.29787398     5.95904400    -1.57725693    -1.51910833     0.10555437
Ti      4.36060099     4.99116701     3.61563600     0.59365483    -0.87977886    -0.62765691
O       3.30204598     3.62961199     4.39018702    -0.13359174    -1.30541795     1.65383290
O       1.00734901     2.15941001     0.28101101    -1.04952007    -1.79841431     1.09625143
O       4.27588903     3.61046001     8.90550298     0.50858831    -0.55398732    -0.69609147
O       3.36922001     0.86294897     0.21775099     0.66982816     0.15669388     0.19150329
O       1.78056000     4.58414599     8.82656001    -1.58729504     0.56424705     2.65549135
O       2.91424399     0.87586698     5.08500803     1.38931925    -0.22332148    -2.10783949
O       1.06293998     4.96418897     4.25016201    -1.91112946    -0.36855698     0.38591630
O       4.98029798     3.40060800     2.60128201     1.89368889    -0.09633747    -0.27104554
O       0.17554101     1.99351701     6.25904798     0.10231066    -0.50724028     0.27898922
O       2.48388700     1.84407799     2.35013200     1.11044033    -0.12175618     0.16918405
O       2.16628598     4.12789900     6.74800701     0.63388772    -0.98346892    -2.05917080
O       5.08372398     0.71988998     2.07788501     0.93532217    -0.59971698     0.59046152
O       2.34685099     1.27360301     7.41118798     0.65658389     1.41077228    -1.51615876
O       2.79576502     4.62522899     2.23374697    -0.42034493     0.59624187    -0.73852215
