# total energy = -19515.37683626 eV

CRYSTAL
PRIMVEC
        5.93400000     0.00000000     0.00000000
        0.00000000     9.29699974     0.00000000
        0.00000000     0.00000000     4.64899994
PRIMCOORD
23 1
Ti      4.46601998     7.02889599     2.14351902     0.63605439    -0.35502911    -0.10548803
Ti      4.56282798     2.33175499     2.31372000     1.16350175     0.17905915     1.58422591
Ti      1.35404801     6.94409200     2.30641698     1.60892779    -1.85252371     2.52989754
Ti      1.53839299     2.33545701     2.41840401    -2.13622551     0.38855348    -1.31074785
Ti      2.93043502     4.64183197     0.32058098     2.02355176    -0.03333488    -2.12031372
Ti      2.87011902     0.27637600     4.49439002     0.28213034    -1.49695775     0.56304532
Ti      0.01983002     4.52491899     4.60395400    -1.76611456     0.36143322    -1.15926508
Ti      5.82975103     9.19037302     4.56148498     0.83250500    -0.17290187     0.59388288
O       4.48914899     5.72615998     0.68574498    -0.90698320    -0.10463391     0.58714865
O       4.41316702     1.12797899     0.90442599    -0.23498478    -2.90648973    -1.24067138
O       1.46627301     5.64043099     0.79988898    -0.10784265    -0.79558600    -0.05364249
O       1.56651802     0.85370102     0.90031598    -0.27918334     0.77694447     0.99251201
O       4.45841300     8.32981100     3.66342102    -0.50945297     0.17647339     0.50474990
O       4.39567697     3.73486598     3.65783497     0.32374109     0.68359873     2.06462694
O       1.50527300     8.20431402     3.81267499     0.19201443     0.99809053     0.32152223
O       1.41597201     3.48132298     3.86480398     0.80946122     1.69295919     0.51879842
O       2.96135802     1.68929799     3.28804702     1.17796138    -2.80584978     1.03236978
O       5.88582799     5.78919901     3.13988702     0.36297305     1.31130809    -0.60801187
O       0.12348002     1.22580999     3.41237600     0.20656148     1.72520443    -2.46704819
O       2.86377001     7.67364000     1.54423002     1.47344680     0.34609838     0.11976383
O       3.35763002     3.44626102     1.49353500    -3.13942045    -0.60082795     0.16964274
O       0.19392801     7.80488299     1.48390699    -3.78258421     2.62301599    -1.98698474
O       5.88805001     3.32720201     1.53165402     1.76996144    -0.13860437    -0.53001280
