# total energy = -19515.85632827 eV

CRYSTAL
PRIMVEC
        5.17600016     0.00000000     0.00000000
        0.00000000     5.50899976     0.00000000
        0.00000000     0.00000000     9.26300011
PRIMCOORD
23 1
Ti      1.96966001     3.21491901     3.36036597     0.32814153    -0.55731381     2.00680178
Ti      3.34243099     2.29240400     5.94389599     1.11240028     1.35329422    -3.29954830
Ti      4.15753901     2.14630498     1.49725702     1.95641663     0.16990165    -1.49140854
Ti      0.76269798     3.44481801     7.69553799     0.82125668    -1.28301721     3.52785207
Ti      1.93475400     0.02918502     1.52228499    -0.72740546     0.52737716    -2.73553085
Ti      3.25134001     5.26780998     7.97466501    -1.61967758     0.33206761     0.79268811
Ti      0.81520898     0.63096799     5.84533598    -0.70650676    -1.04316559    -3.17847733
Ti      4.56085299     4.90439200     3.36932500     0.13285409     0.58615852     2.36312030
O       1.78977298     1.98034098     4.77038098    -0.47597591    -0.10869266     0.95811115
O       3.84143900     3.48411503     4.56837699    -1.26209973     0.03630862    -0.36225803
O       0.15390501     2.71206399     0.09615902    -1.09311211     0.34196687    -0.54490001
O       3.23037898     0.87135998     0.21373300     0.86443657     0.17591983     0.39447371
O       1.53409702     4.88449800     8.83327500     1.59467925    -0.18052005     2.23466897
O       4.23612898     0.57990201     4.86930400     0.22113707     0.91723856    -0.11130644
O       1.10611899     4.87521100     4.33896399     0.88355890    -0.08396146     0.08413038
O       0.28978201     3.40824302     2.65916802     0.32787260    -1.15846521    -1.75403988
O       5.13357798     2.03703999     6.73491501    -1.43580841     0.48660279     0.21517725
O       2.47450701     1.56497599     2.40395901     0.50510780     0.52045986     0.32180633
O       2.43212002     3.76040302     6.92546602     1.38781978    -0.84990752    -0.26038214
O       0.08187700     0.69448402     1.94940300     0.05350493    -1.05694465     0.74406982
O       5.06242798     4.84943001     7.15701700    -2.43535933     1.42734536    -0.87072061
O       2.39808101     1.02567601     6.94310302    -0.09372446    -1.02849564     0.92978452
O       3.14240199     4.08169902     2.01312001    -0.33951661     0.47584247     0.03588696
