# total energy = -19960.07317909 eV

CRYSTAL
PRIMVEC
        5.05266387     0.00000000     0.00000000
        0.53644279     5.35073875     0.00000000
        0.00000000     0.00000000     9.05450861
PRIMCOORD
24 1
Ti      2.14924319     3.17084286     3.35915819     0.68419343    -0.35820597     0.24126881
Ti      3.43986363     2.17989593     5.69535072    -0.68419343     0.35820597    -0.24126881
Ti      4.57614382     2.17989775     1.16806010    -0.92442557    -0.52017884     0.69159744
Ti      1.01296301     3.17084130     7.88644898     0.92442557     0.52017884    -0.69159744
Ti      1.88102190     0.49547353     1.16809642     0.68429859    -0.35999828    -0.24084458
Ti      3.70808492     4.85526547     7.88641265    -0.68429859     0.35999828     0.24084458
Ti      0.74474165     0.49547156     5.69531445     0.92458215     0.51602702     0.69177690
Ti      4.84436512     4.85526739     3.35919452    -0.92458215    -0.51602702    -0.69177690
O       1.78809070     1.88408609     4.62044655    -0.33522184    -0.10296809    -0.32022150
O       3.80101611     3.46665276     4.43406236     0.33522184     0.10296809     0.32022150
O       1.11605428     1.88410773     0.09322125     0.53670564    -0.60831552     0.15983500
O       4.47305259     3.46663117     8.96128747    -0.53670564     0.60831552    -0.15983500
O       3.53279482     0.79128322     0.09319189     0.33569287     0.10284802    -0.32013743
O       2.05631200     4.55945562     8.96131682    -0.33569287    -0.10284802     0.32013743
O       4.20483129     0.79126163     4.62047596    -0.53637526     0.60834894     0.16025512
O       1.38427547     4.55947721     4.43403301     0.53637526    -0.60834894    -0.16025512
O       0.50986986     3.25462275     2.44584873    -0.36631523    -0.10053274    -0.40806482
O       5.07923691     2.09611610     6.60866019     0.36631523     0.10053274     0.40806482
O       2.92005990     2.09606627     2.08143452     0.25236210    -0.35901535    -0.33246716
O       2.66904692     3.25467252     6.97307429    -0.25236210     0.35901535     0.33246716
O       0.24164856     0.57925321     2.08140558    -0.36590951    -0.10023886     0.40884361
O       5.34745820     4.77148558     6.97310319     0.36590951     0.10023886    -0.40884361
O       2.40082562     0.57930304     6.60868909    -0.25184479     0.35922130    -0.33237666
O       3.18828120     4.77143580     2.44581983     0.25184479    -0.35922130     0.33237666
