# total energy = -19515.99264212 eV

CRYSTAL
PRIMVEC
        5.17600016     0.00000000     0.00000000
        0.00000000     5.50899976     0.00000000
        0.00000000     0.00000000     9.26300011
PRIMCOORD
23 1
Ti      1.86803400     3.26127600     3.46633599     0.43361362     1.01147159     0.10736751
Ti      3.31430898     2.22569200     5.83402101     1.46959632     1.36538664    -2.67859658
Ti      4.34753597     2.09674399     1.54393897     0.16983068     0.06097913    -1.73894210
Ti      0.83812199     3.25729701     7.78002097     0.55557575     1.58804477     0.92245534
Ti      1.85523998     0.27239399     1.34509602     1.28269479    -1.85932402    -1.05562233
Ti      3.36994800     5.20896102     7.86106003    -0.69052040    -1.73990909     1.79417276
Ti      0.78066900     0.57231202     5.93518599    -0.97137856    -0.37404268    -2.77177082
Ti      4.53619401     4.87541198     3.36392400    -0.93739371     0.70645225     4.11146082
O       1.75217901     1.95345898     4.60115602    -0.67856606    -2.63395887     1.98243286
O       3.62766600     3.41124002     4.31166400    -0.24204965    -0.26004636     0.72818811
O       4.95034898     2.81394702     9.20331299    -0.51516468    -0.77754276     0.54507304
O       3.67628802     0.39297301     0.29369300    -0.32057272     0.38731987    -0.28300143
O       1.77181900     4.39458100     8.99192202     0.81339141     2.27649466     1.51658325
O       4.31778801     0.69947501     5.05389198    -1.02763920    -0.49065845    -1.47830182
O       0.93952399     4.63495002     4.55093398     0.26344510     0.27396708     0.47330659
O       0.15489902     3.54102301     2.52186001     0.76810810    -2.19378147    -2.51871941
O       5.09823899     2.36216300     6.45786998     0.50066262    -0.81419488     0.65532070
O       2.47180498     1.93189501     1.87897099     0.14618938     1.93807643     0.13480710
O       2.57521600     3.61045599     6.90389199     0.51246244     0.44261017    -0.10365432
O       0.16359202     0.70307299     2.31910300     0.39414563     0.93826043    -0.83041418
O       5.11977000     4.82565799     7.04700401    -0.58269472     0.19509949     1.77910532
O       2.45716302     1.08008601     7.05622397    -1.55904117    -0.80656513     0.71862746
O       2.66055197     4.93529902     2.78445899     0.21530503     0.76586044    -2.00987811
