# total energy = -19952.11059859 eV

CRYSTAL
PRIMVEC
        5.59168750     0.00000000     0.00000000
        1.17849379     5.83339403     0.00000000
        0.00000000     0.00000000    10.05880626
PRIMCOORD
24 1
Ti      2.72509201     3.45686390     3.73174551     0.35815095    -1.71615055     0.86800526
Ti      4.04508901     2.37653027     6.32706115    -0.35815095     1.71615055    -0.86800526
Ti      5.30258893     2.37653236     1.29761763    -0.73701805    -0.39143312     0.15051192
Ti      1.46759211     3.45686204     8.76118914     0.73701805     0.39143312    -0.15051192
Ti      2.13584525     0.54016710     1.29765796     0.35815095    -1.71615055    -0.86800526
Ti      4.63433579     5.29322724     8.76114881    -0.35815095     1.71615055     0.86800526
Ti      0.87834526     0.54016485     6.32702082     0.73701805     0.39143312     0.15051192
Ti      5.89183578     5.29322950     3.73178584    -0.73701805    -0.39143312    -0.15051192
O       2.18477200     2.05403723     5.13293200     1.26160659     1.52825169    -0.55977899
O       4.58540903     3.77935694     4.92587467    -1.26160659    -1.52825169     0.55977899
O       1.44104445     2.05406072     0.10356106    -0.45273415     0.02417712     0.68490228
O       5.32913663     3.77933350     9.95524532     0.45273415    -0.02417712    -0.68490228
O       3.99616225     0.86265997     0.10352841    -1.26160659    -1.52825169    -0.55977899
O       2.77401878     4.97073420     9.95527797     1.26160659     1.52825169     0.55977899
O       4.73988985     0.86263653     5.13296465     0.45273415    -0.02417712     0.68490228
O       2.03029112     4.97075771     4.92584201    -0.45273415     0.02417712    -0.68490228
O       0.91998561     3.54820086     2.71713462     0.21794890     0.80588919     0.84463264
O       5.85019541     2.28519331     7.34167205    -0.21794890    -0.80588919    -0.84463264
O       3.46066973     2.28513883     2.31230071     0.79583874     0.83785547     0.11222330
O       3.30951130     3.54825535     7.74650578    -0.79583874    -0.83785547    -0.11222330
O       0.33073883     0.63150389     2.31226857     0.21794890     0.80588919    -0.84463264
O       6.43944220     5.20189034     7.74653792    -0.21794890    -0.80588919     0.84463264
O       2.72026451     0.63155832     7.34170413    -0.79583874    -0.83785547     0.11222330
O       4.04991651     5.20183586     2.71710248     0.79583874     0.83785547    -0.11222330
