# total energy = -4990.35272446 eV

CRYSTAL
PRIMVEC
        3.88405694     0.00000000     0.00000000
        0.38742809     3.86468598     0.00000000
       -2.13577696    -1.93237416     4.96314423
PRIMCOORD
6 1
Ti      0.29042224     2.89866150     1.24078581    -0.00006273     0.00006273     0.00000000
Ti      1.84528549    -0.96634999     3.72235782     0.00006273    -0.00006273     0.00000000
O       0.09689797     0.96616538     0.80845555    -0.00031856    -0.00051576    -0.38189201
O       2.03880964     0.96614603     4.15468819     0.00031856     0.00051576     0.38189201
O      -0.09687647    -0.96614594     3.29002756    -0.00051576    -0.00031856    -0.38189201
O       2.23258402     2.89845730     1.67311618     0.00051576     0.00031856     0.38189201
