# total energy = -19924.55569834 eV

CRYSTAL
PRIMVEC
        6.26266053     0.00000000     0.00000000
        0.00003433     6.66536466     0.00000000
        0.00000000     0.00000000    11.20878527
PRIMCOORD
24 1
Ti      2.26993357     3.94988893     4.15837947     0.05047746    -0.88160846     0.62471814
Ti      3.99276129     2.71547579     7.05040612    -0.05047746     0.88160846    -0.62471814
Ti      5.40115420     2.71547808     1.44596854     0.05067003     0.88155935    -0.62485312
Ti      0.86154066     3.94988690     9.76281719    -0.05067003    -0.88155935     0.62485312
Ti      2.26991653     0.61720673     1.44601348     0.05047746    -0.88160846    -0.62471814
Ti      3.99277832     6.04815819     9.76277224    -0.05047746     0.88160846     0.62471814
Ti      0.86152363     0.61720425     7.05036117    -0.05067003    -0.88155935    -0.62485312
Ti      5.40117123     6.04816067     4.15842442     0.05067003     0.88155935     0.62485312
O       1.98218368     2.34698827     5.71975745     1.40126974     1.29278303     0.01633834
O       4.28051117     4.31837652     5.48902815    -1.40126974    -1.29278303    -0.01633834
O       1.14920737     2.34701511     0.11540073    -1.40129082     1.29311625     0.01581820
O       5.11348755     4.31834968    11.09338454     1.40129082    -1.29311625    -0.01581820
O       4.28049414     0.98569413     0.11536436    -1.40126974    -1.29278303     0.01633834
O       1.98220072     5.67967060    11.09342091     1.40126974     1.29278303    -0.01633834
O       5.11347052     0.98566728     5.71979381     1.40129082    -1.29311625     0.01581820
O       1.14922428     5.67969751     5.48899178    -1.40129082     1.29311625    -0.01581820
O       0.22755780     4.05425264     3.02777261     0.49364762    -0.28656832     0.33119112
O       6.03513706     2.61111208     8.18101299    -0.49364762     0.28656832    -0.33119112
O       3.35889308     2.61104996     2.57665582     0.49358231     0.28673596    -0.33144103
O       2.90380177     4.05431476     8.63212958    -0.49358231    -0.28673596     0.33144103
O       0.22754076     0.72157025     2.57662003     0.49364762    -0.28656832    -0.33119112
O       6.03515409     5.94379448     8.63216537    -0.49364762     0.28656832     0.33119112
O       2.90378474     0.72163237     8.18104872    -0.49358231    -0.28673596    -0.33144103
O       3.35891012     5.94373236     3.02773681     0.49358231     0.28673596     0.33144103
