# total energy = -4988.03515503 eV

CRYSTAL
PRIMVEC
        4.13800416     0.00000000     0.00000000
        0.61721963     4.09171338     0.00000000
       -2.37764918    -2.04588877     5.29601445
PRIMCOORD
6 1
Ti      0.46276424     3.06894143     1.32400333    -0.00068828     0.00068828     0.00000000
Ti      1.91481079    -1.02311645     3.97201055     0.00068828    -0.00068828     0.00000000
O       0.15434843     1.02292222     0.86267734    -0.00054045    -0.00152029    -1.03972725
O       2.22322642     1.02290259     4.43333654     0.00054045     0.00152029     1.03972725
O      -0.15432311    -1.02290044     3.51068457    -0.00152029    -0.00054045    -1.03972725
O       2.53189791     3.06872526     1.78532931     0.00152029     0.00054045     1.03972725
