# total energy = -19518.42095255 eV

CRYSTAL
PRIMVEC
        5.93400000     0.00000000     0.00000000
        0.00000000     9.29699974     0.00000000
        0.00000000     0.00000000     4.64899994
PRIMCOORD
23 1
Ti      4.54570402     7.12583502     2.28684901     0.08025496    -1.11023207    -0.01326895
Ti      4.44665997     2.28134901     2.35319101     0.01262515    -0.47033902     0.16654584
Ti      1.45448902     7.05328699     2.21645801    -0.43950968    -0.01599510     0.21737811
Ti      1.45650799     2.31031501     2.29576898    -0.34524555    -0.83072143     0.29996660
Ti      2.97575000     4.44113801     0.07664598     0.27741571     0.24660231     0.37755738
Ti      3.00642900     9.27312401     0.00103698    -0.70953783     0.83047074    -0.11432903
Ti      0.01513399     4.72222702     0.05627700    -0.29864068     0.44219983    -0.45777455
Ti      0.01305602     0.01791201     4.59547298     0.34059262     0.60071945     0.45510163
O       4.45522899     5.66878102     0.89367697    -0.47003614    -0.71427869    -0.07811529
O       4.39872001     0.86039300     0.91734300     0.24167145     0.19852678     0.07175129
O       1.53443702     5.60826701     0.91465001     0.25580789    -0.09493596     0.24231088
O       1.49134500     0.89321199     1.00510398    -0.47826753    -0.13724939    -0.65546906
O       4.40104299     8.29086001     3.77437600     0.18231211    -0.03793278     0.08564913
O       4.37234798     3.79437398     3.57894899    -0.02037060     0.59864071     1.19074594
O       1.39382901     8.38022498     3.75876199     0.73914101    -0.59420273    -0.23784873
O       1.50474599     3.75553401     3.78153799    -0.09352700    -0.18676886    -0.62500867
O       2.97293203     1.37523801     3.31210099    -0.35586369     0.42472172    -0.48560521
O       0.02974198     6.04957300     3.31400698    -0.09806705     0.59674041    -1.14034870
O       5.86195898     1.26987802     3.20533403     0.24910759     1.13978202    -0.14502596
O       2.95021402     7.92897702     1.43399399     0.02801526    -1.13702631     1.05012994
O       2.92948297     3.12931401     1.34833702     0.16757865     0.34795472     0.20993374
O       5.93384998     7.95892898     1.46867198     0.18686836    -0.05157121    -0.22327314
O       5.86194501     3.23646499     1.42435301     0.54767500    -0.04510514    -0.19100270
