# total energy = -19959.25162949 eV

CRYSTAL
PRIMVEC
        4.96872240     0.00000000     0.00000000
        0.00002723     5.28822320     0.00000000
        0.00000000     0.00000000     8.89292055
PRIMCOORD
24 1
Ti      1.80093903     3.13379618     3.29921016    -0.02027881     0.39331902    -0.39888443
Ti      3.16781061     2.15442708     5.59371064     0.02027881    -0.39331902     0.39888443
Ti      4.28521325     2.15442889     1.14721471    -0.01660882    -0.39294544     0.41682946
Ti      0.68353639     3.13379456     7.74570620     0.01660882     0.39294544    -0.41682946
Ti      1.80092551     0.48968468     1.14725037    -0.02023613     0.38336936     0.41623450
Ti      3.16782412     4.79853873     7.74567053     0.02023613    -0.38336936    -0.41623450
Ti      0.68352288     0.48968271     5.59367498     0.01686079     0.38307934     0.39917600
Ti      4.28522676     4.79854070     3.29924582    -0.01686079    -0.38307934    -0.39917600
O       1.57264160     1.86207334     4.53798938    -0.77404401    -0.69378931    -0.07887710
O       3.39610804     3.42614997     4.35493142     0.77404401     0.69378931     0.07887710
O       0.91176783     1.86209464     0.09155760     0.77326548    -0.69321081    -0.07850378
O       4.05698186     3.42612867     8.80136294    -0.77326548     0.69321081     0.07850378
O       3.39609452     0.78203831     0.09152875     0.77389463     0.69354197    -0.07837085
O       1.57265512     4.50618494     8.80139180    -0.77389463    -0.69354197     0.07837085
O       4.05696834     0.78201702     4.53801823    -0.77425972     0.69414155    -0.07870021
O       0.91178124     4.50620629     4.35490257     0.77425972    -0.69414155     0.07870021
O       0.18054172     3.21659714     2.40219975    -0.28079774     0.17263936    -0.18324902
O       4.78820791     2.07162612     6.49072105     0.28079774    -0.17263936     0.18324902
O       2.66490691     2.07157683     2.04428892    -0.28086716    -0.17282319     0.18355678
O       2.30384273     3.21664642     6.84863173     0.28086716     0.17282319    -0.18355678
O       0.18052821     0.57248548     2.04426052    -0.28083090     0.17295252     0.18331484
O       4.78822143     4.71573777     6.84866013     0.28083090    -0.17295252    -0.18331484
O       2.30382922     0.57253477     6.49074939     0.28080699     0.17295149     0.18327884
O       2.66492042     4.71568848     2.40217136    -0.28080699    -0.17295149    -0.18327884
