# total energy = -19924.10654418 eV

CRYSTAL
PRIMVEC
        6.27048542     0.00000000     0.00000000
        0.66573925     6.64040399     0.00000000
        0.00000000     0.00000000    11.23687735
PRIMCOORD
24 1
Ti      2.66726590     3.93509729     4.16880145    -0.08070619    -1.34157976     0.70902155
Ti      4.26895896     2.70530675     7.06807628     0.08070619     1.34157976    -0.70902155
Ti      5.67911181     2.70530900     1.44959253     0.12934273     0.35109121    -0.48889570
Ti      1.25711307     3.93509535     9.78728540    -0.12934273    -0.35109121     0.48889570
Ti      2.33439641     0.61489536     1.44963761    -0.08070619    -1.34157976    -0.70902155
Ti      4.60182847     6.02550894     9.78724032     0.08070619     1.34157976     0.70902155
Ti      0.92424348     0.61489291     7.06803127    -0.12934273    -0.35109121    -0.48889570
Ti      6.01198133     6.02551132     4.16884653     0.12934273     0.35109121     0.48889570
O       2.21906641     2.33819914     5.73409265     1.60151890     1.64265065    -0.27614250
O       4.71715846     4.30220496     5.50278509    -1.60151890    -1.64265065     0.27614250
O       1.38505198     2.33822600     0.11568996    -1.16617158     0.87297932     0.36135043
O       5.55117296     4.30217817    11.12118752     1.16617158    -0.87297932    -0.36135043
O       4.38428895     0.98200277     0.11565352    -1.60151890    -1.64265065    -0.27614250
O       2.55193592     5.65840134    11.12122396     1.60151890     1.64265065     0.27614250
O       5.21830345     0.98197597     5.73412914     1.16617158    -0.87297932     0.36135043
O       1.71792136     5.65842813     5.50274866    -1.16617158     0.87297932    -0.36135043
O       0.63276157     4.03907028     3.03536098     0.46290030     0.43361182     0.85580563
O       6.30346324     2.60133383     8.20151675    -0.46290030    -0.43361182    -0.85580563
O       3.62386921     2.60127199     2.58311361     0.55975148     0.91208633     0.15023784
O       3.31235566     4.03913205     8.65376399    -0.55975148    -0.91208633    -0.15023784
O       0.29989206     0.71886809     2.58307769     0.46290030     0.43361182    -0.85580563
O       6.63633274     5.92153596     8.65379985    -0.46290030    -0.43361182     0.85580563
O       2.97948615     0.71892993     8.20155261    -0.55975148    -0.91208633     0.15023784
O       3.95673872     5.92147418     3.03532513     0.55975148     0.91208633    -0.15023784
