# total energy = -19075.56417044 eV

CRYSTAL
PRIMVEC
        7.60600008     0.00000000     0.00000000
        0.00000000     7.60600008     0.00000000
       -1.89786986    -1.89786986     4.85670466
PRIMCOORD
22 1
Ti      3.87462699     6.49264100     1.24993101    -0.23754020     0.54626321    -0.19318736
Ti      3.77587600     2.75207101     1.23437902    -0.30872738    -0.22097611     0.27679401
Ti      0.11466800     6.85881202     0.95688302    -0.48269240    -1.43526179     1.08689775
Ti     -0.04050302     2.97439801     1.20427798     0.58404198     0.39824603    -1.90649890
Ti      5.64765621     2.95596322     3.60359182    -1.24952780    -0.72293097     0.48011076
Ti      6.13806223    -0.80042277     3.53080783    -0.69225307     0.34460508     0.36114140
Ti      1.78956025     2.65383423     3.65678980     1.62274156    -0.15529649     0.14670617
Ti      1.51054524    -1.10804377     3.82205783     0.34738188     1.32734253    -0.62421600
O       3.96158700     4.62827599     0.74149099     0.03564707     0.46756223    -0.03454613
O       3.62000499     0.84869802     1.00031302     0.01121901     0.10190725    -0.37896995
O      -0.10849001     4.91459200     0.78732103     0.06230865    -0.73099961    -0.83651592
O       0.21089100     1.04350700     0.74600800     0.42210228     0.96535215     0.45108762
O       5.43272521     5.03230324     3.77078183     0.76870537    -0.78677277     0.61701922
O       5.45338122     0.99076624     3.95484179     0.89864691    -0.03334619     1.12077359
O       1.82103021     4.71378225     4.25158381    -0.12095605    -0.98508666    -0.61743960
O       2.22585721     0.78642825     3.99641681    -1.76808325    -0.43446877     0.35547726
O       3.69028825     2.78384720     3.14120081     0.74256341     0.69936552     0.24781664
O      -0.09445078     2.72920023     3.52709983     0.98343627     0.41086295    -1.44646615
O       5.81323001     6.86257198     1.65824502    -0.18616131    -0.18396507    -0.16335664
O       5.74655299     2.82424602     1.63232401    -0.05173087    -0.01929151     0.52316467
O       2.06146300     6.26788502     2.01639202    -0.06363997     1.09287249    -0.36252799
O       1.89064501     3.09640098     1.51889000    -1.31748131    -0.64598374     0.89673555
