# total energy = -19950.46142703 eV

CRYSTAL
PRIMVEC
        4.78757107     0.00000000     0.00000000
        0.00002624     5.09542340     0.00000000
        0.00000000     0.00000000     8.56869949
PRIMCOORD
24 1
Ti      1.73527979     3.01954319     3.17892646    -0.05118477     0.80970728    -0.92912324
Ti      3.05231751     2.07588025     5.38977327     0.05118477    -0.80970728     0.92912324
Ti      4.12898151     2.07588201     1.10538917    -0.04710237    -0.81029503     0.92177836
Ti      0.65861579     3.01954164     7.46331066     0.04710237     0.81029503    -0.92177836
Ti      1.73526677     0.47183159     1.10542353    -0.05104876     0.80644223     0.92129885
Ti      3.05233054     4.62359200     7.46327630     0.05104876    -0.80644223    -0.92129885
Ti      0.65860277     0.47182969     5.38973891     0.04731989     0.80606531     0.92922068
Ti      4.12899454     4.62359390     3.17896082    -0.04731989    -0.80606531    -0.92922068
O       1.51530571     1.79418525     4.37254185    -1.71299246    -1.50598130    -0.20433053
O       3.27229160     3.30123825     4.19615788     1.71299246     1.50598130     0.20433053
O       0.87852630     1.79420577     0.08821957     1.71236383    -1.50664541    -0.20327715
O       3.90907106     3.30121773     8.48047992    -1.71236383     1.50664541     0.20327715
O       3.27227858     0.75352650     0.08819176     1.71298860     1.50632737    -0.20390064
O       1.51531873     4.34189695     8.48050772    -1.71298860    -1.50632737     0.20390064
O       3.90905804     0.75350598     4.37256965    -1.71241653     1.50619933    -0.20391530
O       0.87853922     4.34191752     4.19613008     1.71241653    -1.50619933     0.20391530
O       0.17395947     3.09932537     2.31461955    -0.61617821     0.37266971    -0.41196776
O       4.61363783     1.99609808     6.25408018     0.61617821    -0.37266971     0.41196776
O       2.56774884     1.99605059     1.96975755    -0.61603115    -0.37336983     0.41258019
O       2.21984846     3.09937285     6.59894203     0.61603115     0.37336983    -0.41258019
O       0.17394645     0.55161362     1.96973019    -0.61628671     0.37308880     0.41238685
O       4.61365086     4.54380983     6.59896939     0.61628671    -0.37308880    -0.41238685
O       2.21983544     0.55166111     6.25410749     0.61617384     0.37289854     0.41221021
O       2.56776187     4.54376234     2.31459219    -0.61617384    -0.37289854    -0.41221021
