# total energy = -19954.32168562 eV

CRYSTAL
PRIMVEC
        5.98187590     0.00000000     0.00000000
        0.00002527     4.70569237     0.00000000
        0.00000000     0.00000000     9.52406795
PRIMCOORD
24 1
Ti      2.16815730     2.78858897     3.53336128     0.02151114     0.80760720    -1.39336642
Ti      3.81374393     1.91710355     5.99070672    -0.02151114    -0.80760720     1.39336642
Ti      5.15899194     1.91710519     1.22863467     0.02343690    -0.80739611     1.39291571
Ti      0.82290929     2.78858755     8.29543344    -0.02343690     0.80739611    -1.39291571
Ti      2.16814477     0.43574290     1.22867285     0.02143735     0.80924139     1.39144787
Ti      3.81375646     4.26994979     8.29539525    -0.02143735    -0.80924139    -1.39144787
Ti      0.82289676     0.43574110     5.99066854    -0.02346055     0.80970959     1.39469080
Ti      5.15900447     4.26995158     3.53339947     0.02346055    -0.80970959    -1.39469080
O       1.89331042     1.65695431     4.86005898     0.90732927    -0.49191521     0.85041403
O       4.08859086     3.04873822     4.66400903    -0.90732927     0.49191521    -0.85041403
O       1.09768036     1.65697329     0.09805564    -0.90731462    -0.49192549     0.84978153
O       4.88422098     3.04871929     9.42601210     0.90731462     0.49192549    -0.84978153
O       4.08857833     0.69589198     0.09802474    -0.90753727     0.49180157     0.85006976
O       1.89332295     4.00980054     9.42604300     0.90753727    -0.49180157    -0.85006976
O       4.88420845     0.69587305     4.86008988     0.90745191     0.49214172     0.85006590
O       1.09769278     4.00981953     4.66397813    -0.90745191    -0.49214172    -0.85006590
O       0.21735077     2.86226884     2.57268836     0.15300075    -0.20443389     0.56662712
O       5.76455051     1.84342368     6.95137964    -0.15300075     0.20443389    -0.56662712
O       3.20829517     1.84337979     2.18937593     0.15440329     0.20490903    -0.56633582
O       2.77360611     2.86231278     7.33469191    -0.15440329    -0.20490903     0.56633582
O       0.21733824     0.50942266     2.18934551     0.15332522    -0.20458738    -0.56614144
O       5.76456304     4.19626992     7.33472233    -0.15332522     0.20458738     0.56614144
O       2.77359358     0.50946655     6.95141001    -0.15420274    -0.20462981    -0.56676134
O       3.20830770     4.19622598     2.57265794     0.15420274     0.20462981     0.56676134
