# total energy = -19961.41737498 eV

CRYSTAL
PRIMVEC
        7.60600008     0.00000000     0.00000000
        0.00000000     7.60600008     0.00000000
       -1.89786986    -1.89786986     4.85670466
PRIMCOORD
24 1
Ti      3.79301801     6.50636801     1.25048998     0.75120797     0.67868381     0.20760380
Ti      3.77869101     2.79359602     1.22158499     0.38159736    -0.63806191     0.41435425
Ti      0.04643499     6.72713002     1.25569898    -0.88717542    -0.54194658    -1.00809264
Ti      0.00670102     2.90896900     1.15460401    -0.15607605     0.60596527    -0.82791429
Ti      5.70407820     2.97881621     3.57571381    -1.32352572    -0.23881829     0.30881197
Ti      5.72677022    -0.88854575     3.65693580    -0.40970416     0.25306298    -0.14632771
Ti      1.81001824     2.80625320     3.62226479     1.17526403    -0.40375719    -0.38369744
Ti      1.88946822    -0.99924678     3.63980284     0.41829884     0.06618253     1.25089743
O       3.79199199     4.68099898     0.82566299    -0.12883160    -0.18031924    -0.11381738
O       3.80346799     0.86195798     0.81708000    -0.08581343    -0.54214816    -0.45036000
O       0.14238800     4.88084001     0.64146702    -0.43529204    -0.58068721     1.88213486
O       0.03237300     1.05240200     0.73055502    -0.00731325    -0.74334939     1.00523640
O       5.74726822     4.83564822     4.07612980     0.12872850     0.54048079    -0.13545991
O       5.75834623     1.11112220     4.05090683    -0.45721970    -1.42173393    -0.24924643
O       1.85917722     4.57523322     4.11568082    -0.46175462     2.03805407    -0.19146190
O       1.89622222     0.87150720     4.08751780    -0.06333838     0.07581620    -0.36703720
O       3.72230924     2.93165721     3.27711179     0.36646615    -0.34960228    -0.48601787
O       3.83170722    -1.06561778     3.25430282    -1.09282621     0.37785872    -0.06655714
O      -0.10091378     2.87135121     3.04525881     2.01919553     0.25419889     1.21628626
O      -0.02144978    -0.81330675     3.21148979     1.40937180    -0.26627023     0.46188034
O       5.75196499     6.57321601     1.75603798    -0.47106278     0.10286165    -1.71762610
O       5.64869700     2.81330401     1.63067298     0.18132712     0.31537420    -0.95993329
O       1.89020500     6.49633100     1.68029499     0.44910710     0.47170916     0.14843215
O       1.93247499     2.77573402     1.61727098    -1.30063107     0.12644613     0.20791182
