# total energy = -19905.68364112 eV

CRYSTAL
PRIMVEC
        8.05476516     0.00000000     0.00000000
        0.00003039     5.14362335     0.00000000
        0.00000000     0.00000000    12.30187369
PRIMCOORD
24 1
Ti      2.91948274     3.04810641     4.56390742     0.53784721    -0.55048419     2.10264895
Ti      5.13531229     2.09551687     7.73796640    -0.53784721     0.55048419    -2.10264895
Ti      6.94672674     2.09551860     1.58698034     0.53704554     0.55059063    -2.10387948
Ti      1.10806836     3.04810488    10.71489354    -0.53704554    -0.55059063     2.10387948
Ti      2.91946781     0.47629480     1.58702969     0.53715199    -0.57155953    -2.10324236
Ti      5.13532722     4.66732861    10.71484426    -0.53715199     0.57155953     2.10324236
Ti      1.10805336     0.47629294     7.73791705    -0.53633669    -0.57167112    -2.10392807
Ti      6.94674167     4.66733047     4.56395670     0.53633669     0.57167112     2.10392807
O       2.54939459     1.81115717     6.27755200     0.73107057     1.46550672    -1.92064177
O       5.50540051     3.33246605     6.02432181    -0.73107057    -1.46550672     1.92064177
O       1.47805621     1.81117794     0.12665469    -0.73092222     1.46561471    -1.92126192
O       6.57673895     3.33244534    12.17521873     0.73092222    -1.46561471     1.92126192
O       5.50538558     0.76065431     0.12661477    -0.73122792    -1.46623666    -1.92076518
O       2.54940952     4.38296891    12.17525866     0.73122792     1.46623666     1.92076518
O       6.57672395     0.76063360     6.27759186     0.73154031    -1.46692417    -1.92201808
O       1.47807102     4.38298968     6.02428189    -0.73154031     1.46692417     1.92201808
O       0.29266663     3.12864330     3.32304299    -2.18397040     0.71114760     0.23880981
O       7.76212847     2.01497991     8.97883076     2.18397040    -0.71114760    -0.23880981
O       4.32005848     2.01493210     2.82793299    -2.18414035    -0.71105504    -0.23884400
O       3.73473655     3.12869119     9.47394057     2.18414035     0.71105504     0.23884400
O       0.29265163     0.55683156     2.82789372    -2.18496156     0.71057579    -0.23864963
O       7.76214341     4.58679166     9.47397983     2.18496156    -0.71057579     0.23864963
O       3.73472162     0.55687945     8.97886996     2.18475793     0.71058273    -0.23930680
O       4.32007341     4.58674377     3.32300372    -2.18475793    -0.71058273     0.23930680
