# total energy = -19516.98381927 eV

CRYSTAL
PRIMVEC
        5.17600016     0.00000000     0.00000000
        0.00000000     5.50899976     0.00000000
        0.00000000     0.00000000     9.26300011
PRIMCOORD
23 1
Ti      1.96421102     3.20713699     3.37576699    -0.57552572    -0.96034133     2.63041897
Ti      3.25826498     2.25799298     6.01794498    -0.00986096     0.38951816    -2.98642562
Ti      4.44968602     2.10865598     1.47381500    -0.43872755    -0.61045468    -1.71204809
Ti      0.85236199     3.39327201     7.72799301    -0.42286307     0.55602261     1.19196027
Ti      2.01532599     0.21060302     1.42011298     0.16910512     0.83577930    -2.46433953
Ti      3.21506099     5.20586401     7.87316998    -0.14857794     0.35298174     1.83658569
Ti      0.72767698     0.59576802     5.88593700    -1.00729714    -0.98915518    -3.37071929
Ti      4.53541300     4.86679300     3.37354302     0.57575557     0.71470395     3.50021964
O       1.55392598     1.90631802     4.81183302     0.89898398     0.22127822    -0.18923095
O       3.47013300     3.45292299     4.40895800     1.18143288     0.18521026     0.22418280
O       4.97812401     2.88548702     9.17508699     0.43092425     0.09239237     0.20759455
O       3.39123500     0.86566699     0.20710601     0.14590630    -0.39450919    -0.40867109
O       1.92947000     4.51244200     9.08043702    -0.70296095    -0.56144583    -0.00784470
O       4.19415998     0.66338898     4.89850898    -0.27935535    -0.10116600    -0.47441216
O       1.04067299     4.78588799     4.41144497    -0.43427105    -0.63042907    -0.31569893
O       0.17817599     3.27402801     2.58171102     0.63868797     0.79587037    -0.15783365
O       5.03862500     2.10547700     6.70420601    -1.06124971     0.71272009     0.64298609
O       2.81286898     1.72474498     2.28716001    -1.27747211     1.07857201     1.14985175
O       2.50663902     3.92850602     6.65749601    -0.45294216    -1.33553535     0.76108101
O       0.27014001     0.68408500     2.15934100     0.32094553    -0.80246011    -0.80678367
O       4.93020003     4.81396698     7.22056198     1.21479502     0.18706017    -0.09610427
O       2.18698501     1.00147101     7.09303698     0.31457253     1.10434630     0.29111044
O       2.93252299     4.45850502     2.22312199     0.91999453    -0.84095905     0.55412127
