# total energy = -39037.37306367 eV

CRYSTAL
PRIMVEC
        7.60600008     0.00000000     0.00000000
        0.00000000     7.60600008     0.00000000
       -3.79573973    -3.79573973     9.71340985
PRIMCOORD
46 1
Ti      1.99290343     4.62424646     6.16084464    -0.35215307     1.49818520    -0.22619648
Ti      3.73709398     6.72052202     1.29287601    -1.20429925     1.39375337     0.65959002
Ti      2.00426746     0.81166043     6.08768260     0.48756773    -0.40772132    -0.35733539
Ti      3.82766600     2.95210599     1.22543999    -0.12163122    -1.26980070    -1.46010226
Ti     -1.87502253     4.71826845     6.07328565     0.06837003     0.20170903    -0.54419270
Ti     -0.09936298     6.67971298     1.22152800     1.13254642    -0.09806911    -0.49534943
Ti     -1.76709355     0.97282046     6.00294460    -0.75791007    -0.12317697    -0.17684234
Ti      0.00824299     2.98106903     1.20011098     0.08524264    -0.10329257    -0.81301989
Ti      3.88307546     0.93958643     8.42157663    -0.46514564     1.04370938     0.38675448
Ti      5.63378801     2.72294800     3.52367600     0.34625085    -0.29053245     0.75403747
Ti      3.82731944    -2.79204352     8.54342462    -0.71866345    -0.36254599     0.56310137
Ti      5.58600802    -1.10055803     3.63565202     0.17118771     0.71899615     0.39843192
Ti      0.07031644     1.08504647     8.35580662     0.38516297    -1.21766900     0.11958282
Ti      1.86149798     2.80805997     3.46674499     0.03152199    -0.57787828     0.51924913
Ti     -0.06366854    -2.86682955     8.53749762     0.64700678     0.96998374     0.42035830
Ti      1.77096898    -1.01246203     3.78139299     0.16765090     0.34075588     0.11219321
O       1.92450944    -1.00318253     5.82697761    -0.41160189    -0.65534924    -1.54654818
O       3.73607701     1.05148700     1.14683500    -0.20886133    -0.70259945    -2.60017893
O      -1.94214554     2.85225845     5.52212664     0.32320913    -0.45343529     0.04572400
O      -0.14332999     4.84607100     0.82722200     0.04476292    -1.19109843    -0.36699349
O      -1.83364553    -0.95381257     5.74668364     0.30314552    -0.71405398    -0.51468491
O      -0.04134599     1.03593898     0.79279399     0.19064326    -0.37530227    -0.40333707
O       3.72716947     2.81171643     8.90250260     0.31423006     1.45089719     0.20641338
O       5.45288099     4.66973602     3.97838801     0.66315871     0.01172012     0.38100472
O       4.01110143    -0.88297854     8.84789162    -0.18786698    -0.73948811     0.94537904
O       5.65649802     0.78556299     3.97777702     0.19579909     1.88593135     0.95207291
O       0.08286646     2.86054446     8.98628364     0.03411907     0.49774313     0.20445394
O       1.84629900     4.54335500     4.20247198     0.02667212     0.01780927    -0.45904879
O      -0.04312355    -0.73317254     8.91771163     0.18145490    -0.88764850     0.77196990
O       1.85984599     0.95463798     4.08282902     0.06770206    -0.06985201     0.29214659
O       2.04227747     0.77979845     8.10372261    -1.72140460     0.48698872    -0.40151185
O       3.80409999     2.59099602     3.13767898    -0.12734987     0.94264082     0.62084245
O       1.99001047    -2.72943556     8.05374362    -1.31461608    -0.45471313     1.40669631
O       3.67499402    -0.92480800     3.31015499    -0.09686018    -0.77644002    -0.51780726
O      -1.87367255     0.94590142     8.01823964     1.73406754     0.64545229    -0.96253988
O      -0.00321798     2.55747698     3.13175198    -0.28006523     0.86397583    -0.18773919
O      -1.93132456    -2.87133555     8.02980560     1.51620478    -0.24711370     0.57795618
O      -0.06095497    -1.01916702     3.25622802     0.40998698    -0.23102373     0.44657353
O       3.81299345     4.82079543     6.50606463     0.65505022    -0.76734037    -0.55337205
O       5.66446902     6.73967099     1.72896802    -1.36726046    -0.59044635    -0.57268516
O       3.82922543     1.07510545     6.42761464     0.87267773     0.20594004    -0.17948132
O       5.73470301     3.05028298     1.51648902    -1.12745949     0.09832082     0.64880090
O       0.06308147     4.61961844     6.52544464    -0.78657840    -0.22238534     0.42106124
O       1.76778799     6.44119401     1.57840302     1.71029357     0.61794816     0.49935984
O       0.22898547     1.37066645     6.38648460    -1.75752295    -0.29379930     0.54926703
O       1.91298100     3.22398901     1.55511202     0.24156474    -0.06968515     0.43594536
