# total energy = -19519.05701322 eV

CRYSTAL
PRIMVEC
        7.60600008     0.00000000     0.00000000
        0.00000000     7.60600008     0.00000000
       -1.89786986    -1.89786986     4.85670466
PRIMCOORD
23 1
Ti      3.76432200     6.63772002     1.28877198     1.06303354    -0.32888638    -0.65860914
Ti      3.78941098     2.86461902     1.11214701     0.19561809     0.45524946     0.92613459
Ti     -0.01503303     6.57629000     1.22667499    -0.75209655     0.20467891    -0.42225937
Ti     -0.02896102     2.83171298     1.13838298    -0.25481673    -0.01925757     0.55360680
Ti      5.63836820     2.91496124     3.62690583    -0.59571968    -0.31847804     0.57461323
Ti      5.72922825    -0.96010576     3.67122681    -0.13613431     0.26292805     0.04561344
Ti      1.99089023     2.92147425     3.62708581     0.87794567    -0.22330219     0.31662967
Ti      1.86142522    -0.97881778     3.61046880     0.11535284     0.17617694     0.79681190
O       4.02588902     4.71762900     0.82831401    -1.08137014     0.49293388    -0.24861960
O       3.73559699     0.98103800     0.78022201    -0.07501710    -0.43530335     0.06011319
O      -0.23705601     4.69524199     0.70249698     0.68888364     1.64526726     1.37185657
O       0.12736598     0.94630497     0.83897799    -0.44579243    -0.80869581    -0.31309877
O       5.91403923     4.75669122     4.03321681     0.00693247    -0.25433645     0.41478826
O       5.69676323     0.98980123     4.14202083     0.42670224    -1.05025438    -1.92478125
O       1.84433422     4.74051522     4.09128480    -0.53537484     0.53290041     0.19612305
O       1.95887321     1.03199824     3.92609979    -0.63984754    -1.16521719     0.89735622
O       3.82821920     2.96871522     3.29057580    -0.72909005    -0.00209185    -1.13129661
O       3.83536320    -1.03574979     3.21969780    -0.55321033     0.28007706     0.42769571
O      -0.04389478    -0.90317179     3.20118184     0.92678045     0.16403387     0.22865137
O       5.71527999     6.58638898     1.63547098    -0.22757537     0.71894345    -0.08548561
O       5.68589102     2.78772602     1.73869001     0.93713505    -0.41290261    -1.09751539
O       1.86583998     6.42991100     1.71061298     0.45261280     0.10967327    -0.72447338
O       1.81350800     2.98689701     1.68989199     0.33504778    -0.02413675    -0.20385462
