# total energy = -4989.97559492 eV

CRYSTAL
PRIMVEC
        3.87944745     0.00000000     0.00000000
        0.76819935     3.80262834     0.00000000
       -2.32385874    -1.90134308     4.97622998
PRIMCOORD
6 1
Ti      0.57601578     2.85211667     1.24405763    -0.00003934     0.00003934     0.00000000
Ti      1.74777228    -0.95083142     3.73217251     0.00003934    -0.00003934     0.00000000
O       0.19209048     0.95065153     0.81058726    -0.00034170    -0.00044094    -0.60599484
O       2.13169746     0.95063363     4.16564293     0.00034170     0.00044094     0.60599484
O      -0.19206502    -0.95063069     3.29870214    -0.00044094    -0.00034170    -0.60599484
O       2.51585285     2.85191576     1.67752800     0.00044094     0.00034170     0.60599484
