# total energy = -19959.82172021 eV

CRYSTAL
PRIMVEC
        7.60600008     0.00000000     0.00000000
        0.00000000     7.60600008     0.00000000
       -1.89786986    -1.89786986     4.85670466
PRIMCOORD
24 1
Ti      3.90699099     6.76127698     1.05683100    -2.42490908     1.34916940     1.49938873
Ti      3.79958097     2.97341702     1.25032302     1.09649414    -1.58469642    -1.20858631
Ti     -0.14900001     6.61497497     1.23644101     2.94568545    -0.82325982    -0.30023040
Ti      0.02615803     2.67841202     1.24532298    -0.90308669     1.93765220     1.33857671
Ti      5.58740324     2.76541723     3.73542083     1.76290119    -0.81283065    -0.48564403
Ti      5.70509724    -1.00396577     3.67897180    -0.64077082     0.98888469     0.03633227
Ti      1.94048922     2.92097222     3.60477479    -1.89699995    -0.75553360     0.43994188
Ti      1.90080225    -0.80549175     3.53562583     1.08252816    -0.10688234    -0.28485340
O       3.92357303     4.91551102     0.70933199     0.01043765    -2.47560354     1.27850312
O       3.96728402     1.10953901     0.57069300    -0.25691552    -1.69967980     1.81009741
O      -0.12511899     4.60938701     0.86723399    -0.25201371     1.91223735    -0.09504241
O      -0.17439602     0.96137700     0.88079198     0.31429202    -2.79629633    -1.15746505
O       5.65575421     4.70521423     4.10553179    -0.64905287     0.00486067     0.10801028
O       5.79031822     0.85081325     4.14368483    -0.23981382    -0.19421015    -0.34593332
O       2.11793024     4.78825421     4.05647981    -0.04096052     0.27345543    -2.26748423
O       1.92018321     0.95608523     4.16734482    -0.50227907     2.17335868    -0.88301563
O       3.73423621     2.45457021     3.19719883     0.96781758     1.31121399     0.04581065
O       3.75905023    -0.81064880     3.04208782     1.11465334    -0.48618139     0.79758709
O      -0.03868677     2.65870022     3.33693279     0.97894661     0.87367763    -0.12383157
O       0.02934224    -1.02140279     3.35830679    -1.15517625    -0.26636253    -1.46746307
O       5.71065900     6.90011600     1.68913198     0.35767529    -0.81544572     0.30967329
O       5.74448200     2.69436100     1.77024798    -1.88816770     1.13660440    -0.03350740
O       1.90678100     6.77186598     1.37202400    -0.84196435    -0.05480360     1.08328792
O       1.87749898     2.69420299     1.65029699     1.06067866     0.91067171    -0.09415306
