# total energy = -19518.01530560 eV

CRYSTAL
PRIMVEC
        7.60600008     0.00000000     0.00000000
        0.00000000     7.60600008     0.00000000
       -1.89786986    -1.89786986     4.85670466
PRIMCOORD
23 1
Ti      3.87029202     6.59774502     1.20142699    -1.21165493     0.92469348     1.17854476
Ti      3.85315700     2.72911398     1.20742400    -0.83499486    -0.43685579     0.57102345
Ti     -0.05976798     6.59967101     1.15207200     0.51896117     1.14759047     0.43274073
Ti     -0.05547698     2.82737299     1.10931199    -0.92232549    -0.68416798     0.66763963
Ti      5.73938925     2.91844222     3.72389381    -2.06310382    -0.56985900    -1.48767658
Ti      5.83145921    -0.89686976     3.67961782    -1.69940495    -0.23934742    -0.55939024
Ti      1.91252125     2.96551624     3.69838683     1.49158003    -0.72184956    -0.60554593
Ti      1.82936221    -0.92678775     3.58135780     2.25998663     0.67006316     0.68089650
O       3.73064601     4.76154399     0.73283101    -0.45039676    -0.37946566     0.72777467
O       3.64617799     0.88998898     0.90731699    -0.26806691     0.97648323    -0.62805234
O      -0.23838398     4.75286998     0.78119802     0.62946542     0.06517312    -0.06555518
O       0.20363598     0.88758202     0.77389702    -1.20322402    -0.34596340    -0.47038144
O       5.60512624     4.79085421     3.90906680     0.95031171    -0.65392356     0.92579597
O      -1.57846176     0.92196721     4.10775883    -0.48295208     1.62821930    -0.84278376
O       2.08118724     4.85180924     4.06472381    -0.66759053    -1.13364840    -0.44979152
O       1.86798320     0.93120220     4.14385782    -0.25989697     0.40251509    -0.46461265
O       3.81799624     2.90339422     3.29081483    -0.68668020    -0.35139434    -0.64612463
O       3.79473122    -0.75704976     3.07453083     0.34401245    -0.29836403     1.62067800
O       0.03698822    -0.89105876     3.22306480    -1.93825512    -0.51034308    -0.48796702
O       5.64259400     6.69582802     1.59762300     2.49578671    -0.07182842     0.08335082
O       5.60408699     2.64694402     1.55818802     2.24546889     0.21349677     0.50919046
O       1.79982798     6.53773801     1.72074900    -0.02452396    -0.36820576    -1.70475747
O       1.57357602     2.73732099     1.78806998     1.77749761     0.73698128     1.01500326
