# total energy = -19073.12678379 eV

CRYSTAL
PRIMVEC
        7.60600008     0.00000000     0.00000000
        0.00000000     7.60600008     0.00000000
       -1.89786986    -1.89786986     4.85670466
PRIMCOORD
22 1
Ti      3.84192002     6.64825102     1.60729599     0.39056794     1.64645923    -1.46722165
Ti      3.65553898     2.81218099     0.98136799     1.29316278    -1.59124785     0.35943444
Ti      0.15526299     6.70143698     1.24205002    -0.94452826     0.17910903    -0.45334351
Ti      0.03649402     2.90643598     0.95834302    -1.60173847     0.11177335    -1.36312921
Ti      5.55871120     2.93465224     3.34685782    -1.26414993    -0.93629147     0.77517349
Ti      6.09364521    -0.93764880     3.82069880     0.84750508     1.03838333    -0.78788400
Ti      1.85419623     2.96521525     3.86574782     1.88104651    -1.02978710    -1.32477476
Ti      1.42152324    -1.05578778     3.95492080     0.00515789     0.71407583     0.84544460
O       3.57398800     4.68253999     0.78844902    -0.83447190     0.36778076     3.09947501
O       3.81505301     0.89056298     1.17128098    -0.01657539     0.04468450     0.16933497
O       0.35656900     4.71656101     0.45548498     0.40377339    -0.14988791     0.87274664
O       0.10292201     1.03498497     0.96523698    -1.01147750    -2.40208282     0.51591004
O       5.70879423     4.80666021     4.13376683     0.01547368     0.57719873    -1.11145128
O       5.12936922     0.87661921     3.87215584     1.27195837    -0.11777379     0.10945344
O       2.12512620     4.72726325     4.59752481    -0.57089284     1.68948383    -2.26891222
O       2.02251725     0.97140121     4.00559179     0.80232538     0.12836212     0.48150378
O       3.68193122     3.06639521     3.16789579    -0.19624286     0.20560374    -0.55367904
O       0.38482225     2.88556920     2.81028882    -0.87036425     0.93728855     0.63791356
O       5.93755898     6.70126500     1.80340400    -0.50678159    -0.82095971     1.01173847
O       5.65945501     2.87880600     1.43884998     0.53772046     0.55451080     1.00976926
O       1.92912498    -0.76373702     2.15770600     0.26924911    -1.67038207    -0.32396477
O      -0.02235975    -0.04111675     4.68049980     0.09928267     0.52369946    -0.23353699
