# total energy = -19517.39022446 eV

CRYSTAL
PRIMVEC
        5.93400000     0.00000000     0.00000000
        0.00000000     9.29699974     0.00000000
        0.00000000     0.00000000     4.64899994
PRIMCOORD
23 1
Ti      4.44948499     7.05475799     2.24993599     1.12201261     0.32813536    -0.17354490
Ti      4.46630600     2.24864098     2.33062202    -1.24734751    -0.25014580     0.19041571
Ti      1.49260201     7.15113202     2.41299000    -1.55086352    -0.04675424     0.19124438
Ti      1.38465001     2.29779600     2.31315902     1.69395086    -0.70799620     0.30190830
Ti      3.00932598     4.40789901     0.00525600    -0.00924800    -0.17554342     1.23500209
Ti      2.87810902     0.11142197     4.58267297     1.09857982    -0.26742594     0.33189123
Ti      0.08005198     4.57944198     0.11182600    -0.14801306     1.55797442    -0.96105892
Ti      5.85635499     0.11360398     0.03487903    -0.72117054    -0.84669184     0.23758828
O       4.44031302     5.59296601     0.86969403     0.10575877    -0.74123029    -0.13741934
O       4.38116498     1.03729801     0.85663901     0.59469741    -0.45317227    -0.07500888
O       1.60374198     5.46593198     0.79228100    -0.00706128     0.37472917     0.37432705
O       1.40130898     0.91846501     0.87714003     0.71117434     0.54680880     0.51994230
O       4.42473600     8.47683502     3.81514900    -0.17194542    -1.34231664    -1.05205338
O       4.54541900     3.62739098     3.62160200    -0.17323482     1.32124721     1.04227239
O       1.51297798     8.35420300     3.92138498    -0.45198648    -1.11319886    -1.83861635
O       1.53798197     3.65701602     3.70573599    -0.38534809     0.57950964     0.06349444
O       2.88874998     1.46194201     3.26076598     0.63815601    -0.53407720    -0.19092968
O       0.14501102     6.08847197     3.23792902    -0.19197020     0.14752815    -0.63222705
O       0.02948999     1.20596400     3.12852601    -0.32536114     1.11539484    -0.18691670
O       3.06953402     8.02657000     1.40144001    -0.29022135    -1.27886873     1.49000883
O       2.92931798     3.11169400     1.41682102     0.50280949     1.12129476    -1.00006077
O       0.01616901     7.96470600     1.43331902     0.11398579    -0.40438814     0.30802059
O       0.05455802     3.10134001     1.31514602    -0.90735370     1.06918773    -0.03827911
