# total energy = -19892.76961444 eV

CRYSTAL
PRIMVEC
        8.80395508     0.00000000     0.00000000
        0.00002947     4.51151542     0.00000000
        0.00000000     0.00000000    13.30137712
PRIMCOORD
24 1
Ti      3.19102788     2.67351994     4.93471604     0.35448789    -0.47725940     2.80235822
Ti      5.61295687     1.83799567     8.36666121    -0.35448789     0.47725940    -2.80235822
Ti      7.59285472     1.83799728     1.71591944     0.35507513     0.47707223    -2.80333575
Ti      1.21113010     2.67351854    11.58545801    -0.35507513    -0.47707223     2.80333575
Ti      3.19101321     0.41776230     1.71597278     0.35448789    -0.47725940    -2.80235822
Ti      5.61297160     4.09375345    11.58540467    -0.35448789     0.47725940     2.80235822
Ti      1.21111536     0.41776057     8.36660787    -0.35507513    -0.47707223    -2.80333575
Ti      7.59286939     4.09375519     4.93476938     0.35507513     0.47707223     2.80333575
O       2.78651785     1.58858134     6.78759094     0.85629311     1.30924324    -2.41442900
O       6.01746696     2.92293428     6.51378631    -0.85629311    -1.30924324     2.41442900
O       1.61553215     1.58859949     0.13694512    -0.85629697     1.30942913    -2.41535126
O       7.18845273     2.92291613    13.16443173     0.85629697    -1.30942913     2.41535126
O       6.01745223     0.66717657     0.13690198    -0.85629311    -1.30924324    -2.41442900
O       2.78653252     3.84433905    13.16447494     0.85629311     1.30924324     2.41442900
O       7.18843807     0.66715842     6.78763408     0.85629697    -1.30942913    -2.41535126
O       1.61554662     3.84435727     6.51374317    -0.85629697     1.30942913     2.41535126
O       0.31988610     2.74415946     3.59303379    -2.30930735     0.72858586     0.07994385
O       8.48409865     1.76735622     9.70834346     2.30930735    -0.72858586    -0.07994385
O       4.72187466     1.76731411     3.05769711    -2.30915797    -0.72847119    -0.08002459
O       4.08211009     2.74420158    10.24367994     2.30915797     0.72847119     0.08002459
O       0.31987143     0.48840169     3.05765464    -2.30930735     0.72858586    -0.07994385
O       8.48411338     4.02311393    10.24372242     2.30930735    -0.72858586     0.07994385
O       4.08209542     0.48844380     9.70838587     2.30915797     0.72847119    -0.08002459
O       4.72188939     4.02307182     3.59299132    -2.30915797    -0.72847119     0.08002459
