# total energy = -4983.84037342 eV

CRYSTAL
PRIMVEC
        3.70480730     0.00000000     0.00000000
        0.00000000     2.79494131     0.00000000
        0.00000000    -0.00007389     4.90018143
PRIMCOORD
6 1
Ti      1.85240360     1.39743356     2.45009076     0.00000000     0.00000000     0.00000000
Ti      0.00000000     0.00000000     0.00000000     0.00000000     0.00000000     0.00000000
O       1.85240360     0.54467844     0.95497321     0.00000000    -2.60009923    -2.03749280
O       1.85240360     2.25018869     3.94520831     0.00000000     2.60009923     2.03749280
O       0.00000000     0.85272574     3.40506498     0.00000000     2.59947548    -2.03623398
O       0.00000000     1.94214138     1.49511654     0.00000000    -2.59947548     2.03623398
