# total energy = -19947.34005391 eV

CRYSTAL
PRIMVEC
        4.76764181     0.00000000     0.00000000
        0.50618191     5.04890220     0.00000000
        0.00000000     0.00000000     8.54374146
PRIMCOORD
24 1
Ti      2.02800383     2.99197480     3.16966722     1.18015376     0.34113898    -0.34564021
Ti      3.24582004     2.05692745     5.37407453    -1.18015376    -0.34113898     0.34564021
Ti      4.31800237     2.05692916     1.10216953    -1.61731216    -0.89065695     1.61912042
Ti      0.95582151     2.99197333     7.44157237     1.61731216     0.89065695    -1.61912042
Ti      1.77491297     0.46752374     1.10220380     1.18027280     0.34091144     0.34400499
Ti      3.49891090     4.58137870     7.44153809    -1.18027280    -0.34091144    -0.34400499
Ti      0.70273058     0.46752188     5.37404030     1.61745589     0.88976118     1.62060960
Ti      4.57109324     4.58138051     3.16970149    -1.61745589    -0.88976118    -1.62060960
O       1.68722405     1.77780431     4.35980598    -1.88235983    -1.45557866    -0.43807526
O       3.58659982     3.27109799     4.18393577     1.88235983     1.45557866     0.43807526
O       1.05309737     1.77782473     0.08796261     1.80874398    -1.61725894    -0.17703440
O       4.22072655     3.27107761     8.45577894    -1.80874398     1.61725894     0.17703440
O       3.33350895     0.74664673     0.08793491     1.88267248     1.45573190    -0.43813414
O       1.94031491     4.30225556     8.45580664    -1.88267248    -1.45573190     0.43813414
O       3.96763568     0.74662636     4.35983373    -1.80828478     1.61688665    -0.17695007
O       1.30618814     4.30227594     4.18390807     1.80828478    -1.61688665     0.17695007
O       0.48110797     3.07102864     2.30787777    -0.95191093    -0.51206315    -1.35653510
O       4.79271585     1.97787365     6.23586398     0.95191093     0.51206315     1.35653510
O       2.75533857     1.97782663     1.96402027    -0.07615867    -1.32467603    -0.62933353
O       2.51848529     3.07107561     6.57972138     0.07615867     1.32467603     0.62933353
O       0.22801710     0.54657739     1.96399296    -0.95156820    -0.51169548     1.35689274
O       5.04580671     4.50232486     6.57974865     0.95156820     0.51169548    -1.35689274
O       2.26539443     0.54662441     6.23589124     0.07657519     1.32440041    -0.63003646
O       3.00842944     4.50227789     2.30785051    -0.07657519    -1.32440041     0.63003646
