# total energy = -19517.74345723 eV

CRYSTAL
PRIMVEC
        5.17600016     0.00000000     0.00000000
        0.00000000     5.50899976     0.00000000
        0.00000000     0.00000000     9.26300011
PRIMCOORD
23 1
Ti      1.84377800     3.24996103     3.42057100    -1.39943809     0.35879449     1.40324949
Ti      3.41781801     2.24189302     5.77574801    -0.69588167     0.37863802    -0.77683674
Ti      4.33092103     1.96099902     1.53217499     2.30255486     0.88077722    -0.90989318
Ti      1.02423902     3.34138200     7.86340502    -1.09503787     0.06149978     0.60317434
Ti      1.84443000     0.40739399     1.23076299     1.37720575     0.44327815    -0.46478286
Ti      3.29125902     5.26450500     7.88485199    -0.04796703    -0.43180228     0.71802813
Ti      0.66054799     0.54722198     5.80010900     0.04610118    -0.49608451    -1.82337664
Ti      4.34151198     4.87112998     3.42875801     1.26960093     0.06043483     1.14580998
O       1.67296101     1.98542700     4.79037298    -0.18958936     0.00414719     0.17163817
O       3.44760100     3.75298898     4.57773501     0.10457246    -0.91933324     0.18463227
O       0.56312498     2.50575498     0.20852399    -0.06663402    -0.58482154    -0.66921444
O       3.49446600     0.95988102     0.17069702    -0.56274219    -0.47742498    -0.99204998
O       1.57152202     4.78499601     9.11806502     0.62656470     0.04552860    -1.08383634
O       4.14347602     0.84081799     4.75548200     1.14551687    -0.55611362    -0.82772223
O       1.00002102     4.69308401     4.41234600    -0.96151118     0.97247411     0.61546345
O       0.01120602     3.20562603     2.73207499     0.27281137     0.67752707    -0.55500625
O       5.11868100     1.97091897     6.79745498    -0.70422233     1.25752959     0.77062495
O       2.71550899     1.88571302     2.41660401    -0.23363726     0.14100269    -0.70168285
O       2.81884302     3.59159802     7.07258698    -1.20738226    -1.27624929     1.46815624
O       0.26955501     0.65001302     2.16142898    -1.27104846    -1.05648416     0.51933655
O       5.04866598     4.77601000     7.13261701     0.33631482    -0.08649863     0.41074340
O       2.38127498     0.66850200     6.67020600     0.56264808     0.76327468     0.84247240
O       2.76931901     4.67667999     2.27480203     0.39120043    -0.16009417    -0.04892811
