# total energy = -19516.02990010 eV

CRYSTAL
PRIMVEC
        5.17600016     0.00000000     0.00000000
        0.00000000     5.50899976     0.00000000
        0.00000000     0.00000000     9.26300011
PRIMCOORD
23 1
Ti      1.92495400     3.24852600     3.36705499    -0.34109270    -1.81402862     5.16625268
Ti      3.46523901     2.20129698     5.80182502    -0.41737016     0.79106934    -2.19947904
Ti      4.19904000     2.19603902     1.57880101     1.69377371     0.23379204    -2.78982100
Ti      0.77124298     3.46358401     7.69702598     0.20456064     0.55258658     2.47403336
Ti      1.87443499     5.47728400     1.43538001    -0.04278420     2.85363709    -1.02041517
Ti      3.18121000     5.03152001     8.00331398     0.63985011     1.51852597     1.04903773
Ti      0.85054501     0.57842799     5.90381499    -0.00100942     0.25145810    -2.81166716
Ti      4.56470201     4.98311098     3.28341799     0.10131153     0.71966207     3.26744653
O       1.88757901     1.91417498     4.82480400    -1.91843911    -0.18128289     0.01344122
O       3.62606301     3.61448499     4.54673798     0.62816290     0.10008897    -0.69012008
O       4.79234702     2.73729897     9.17951800     0.04906772     1.35981634     0.04672827
O       3.34968998     0.67788299     0.42236102    -0.57816187    -0.63249290    -0.31300262
O       1.57994102     4.63275198     9.14747701     0.24460636    -1.21611785    -0.61033641
O       4.22730399     0.79898002     4.74616202     1.16643949    -0.24515015    -0.08663541
O       0.98756900     4.82122301     4.26417902     0.80098275     0.75672196     2.02805067
O       0.41696601     3.58008301     2.43276302    -2.24109596    -0.66729022    -2.34728462
O       5.16574698     2.21702503     6.70963198     0.06788460    -1.40759260    -0.99976792
O       2.60053200     1.84781700     2.42421099    -0.24443770    -1.74332069    -0.93161875
O       2.63303100     3.65305502     6.90068502    -1.00724649    -0.73769219     1.20235858
O       0.17507702     0.84083101     1.98267401     0.52353310    -1.23830159     0.80040888
O       5.10621401     5.04635401     7.24240102    -1.51619835    -0.03271833     0.05757396
O       2.48388800     0.89274499     6.98599199    -0.29677612    -0.26991580     0.40849188
O       2.94031201     4.31265801     2.34272902     2.48443965     1.04854537    -1.71367535
