# total energy = -19074.93988387 eV

CRYSTAL
PRIMVEC
        5.17600016     0.00000000     0.00000000
        0.00000000     5.50899976     0.00000000
        0.00000000     0.00000000     9.26300011
PRIMCOORD
22 1
Ti      1.94081699     3.39171502     3.26272002    -0.19124361     0.49346456     0.22666880
Ti      3.49648402     2.22912800     5.85888001     0.57573886     0.88296266     0.68811925
Ti      4.39756503     2.25918802     1.27125002     0.84529856     0.21373897    -2.06058491
Ti      0.63296801     3.33011201     8.11299602     0.65846593    -0.70591952     0.94545489
Ti      1.81782302     0.45392602     1.27971299     0.48664033     0.93552837    -2.40416438
Ti      3.22478600     5.13059897     7.92778197     0.11828699    -0.75447842     1.16554886
Ti      0.50771700     0.15897300     6.09386000     1.32255179     1.48931154    -1.40989168
Ti      4.53166902     5.03573803     3.38523799    -0.22311450    -0.23164388     1.07066149
O       3.51952101     3.52907599     4.41825400    -0.96486981    -0.20004964     0.85653043
O       0.87839698     2.00413702     0.29745598    -0.14539517    -0.00013653    -0.98938246
O       4.21187900     3.76604199     9.05180801     0.73803801    -0.84550347     0.15914440
O       3.52426000     0.82314701     0.15739298    -0.29379235     0.61427328    -0.43633514
O       1.72296699     4.69833101     9.07492601    -1.30708454     0.32503513     0.27735451
O       4.61549900     1.05903301     4.61872100    -0.85073670    -1.12874222     0.62271962
O       0.80297901     4.55970800     4.53673002     1.06022126    -0.94336870     0.65664894
O       0.24281600     3.55764902     2.28961301    -0.13560492    -0.18103710     0.83585361
O       5.07182098     1.86454398     6.87324401     0.14200054     0.40205538     0.55614448
O       2.69408303     1.96965498     2.28077601     0.31945017     0.10116832     0.37249334
O       2.47215000     3.29417500     7.19632497    -0.34825991     0.40695976    -1.35263936
O       0.22368201     0.70059099     2.20089300    -0.76149342     0.17819037     0.15083125
O       2.43253997     0.75769901     6.43451299    -1.10655102    -1.31379666     0.14611302
O       2.82612598     4.76738298     2.40123999     0.06145350     0.26198780    -0.07728919
