# total energy = -19072.63788058 eV

CRYSTAL
PRIMVEC
        5.93400000     0.00000000     0.00000000
        0.00000000     9.29699974     0.00000000
        0.00000000     0.00000000     4.64899994
PRIMCOORD
22 1
Ti      4.46044901     6.79110898     2.48908500    -2.12448148    -0.63870571    -0.84765806
Ti      4.41396698     2.27963098     2.14837100     0.07473788     0.13520382    -0.20906290
Ti      1.58384201     7.05030502     2.73221702     0.89804707     0.56779338    -0.32325644
Ti      1.57752400     2.45342702     1.98770501    -0.44710781     0.29398930    -0.58326988
Ti      3.04798100     4.52163502     4.41692101     0.40386106     1.06944716    -0.01889864
Ti      2.96528298     0.06020100     0.04911098     1.02675089    -0.47352924    -0.00876181
Ti      5.73807398     4.68493500     4.38468797     0.41645587    -0.21823352     2.45748265
Ti      5.92511898     8.90531402     0.30096702    -1.99022588     1.65258283    -0.73868695
O       4.59820200     5.33050102     1.23186902    -0.07570976     1.58872097    -1.43979054
O       4.52348900     1.11527799     0.66516501     0.23575456    -1.15836571     0.10174245
O       1.32990599     0.85662800     0.93811701    -0.05265390     0.76187420     0.11638360
O       4.39028000     8.43625702     3.83750801     0.11854795     1.16193491     0.06353687
O       4.46922298     3.99019099     3.26513799    -0.47607489    -1.09323578     1.18179721
O       1.35431201     8.55834599     3.75277699     1.14497077     0.44688541    -0.62115973
O       1.48224802     4.02373300     3.58963900    -0.32872003    -0.28308139    -0.33169763
O       3.03933202     6.35766201     3.82979599    -1.69187984    -0.52234037    -0.99472213
O       2.83326701     1.38331299     2.88262999     0.62720696     0.26996439     1.94636747
O       5.90975199     6.52617501     3.72228199     1.18492573    -2.44021486     0.41259176
O       3.06344398     7.90993002     1.55946202    -1.31903837    -0.35575982     0.16291004
O       3.14371202     3.24902401     1.11448602    -1.48175147    -0.46757174     0.65384386
O       5.76138799     7.70863200     1.58567201     2.42284602     0.33684781    -0.15606602
O       5.88532300     3.28034998     1.31596698     1.43353864    -0.63420602    -0.82362544
