# total energy = -4986.39041362 eV

CRYSTAL
PRIMVEC
        3.19197338     0.00000000     0.00000000
        1.92359382     4.61662484     0.00000000
       -0.00001226    -0.00006645     5.10856334
PRIMCOORD
6 1
Ti      2.55777738     2.30827904     2.55428161     0.00000000     0.00000000     0.00000000
Ti      0.00000000     0.00000000     0.00000000     0.00000000     0.00000000     0.00000000
O       1.97086432     0.89969912     0.99558373    -0.55508004     0.58641074     0.21907324
O       3.14469044     3.71685896     4.11297944     0.55508004    -0.58641074    -0.21907324
O       0.58690780     1.40855310     3.54986646     0.55601952    -0.58724069     0.22012045
O       1.33667373     3.20800518     1.55869677    -0.55601952     0.58724069    -0.22012045
