# total energy = -4893.05423055 eV

CRYSTAL
PRIMVEC
        5.32155534     0.00000000     0.00000000
       -0.00000690     2.01852071     0.00000000
       -2.66080957    -1.00935617     5.87308429
PRIMCOORD
6 1
Ti     -0.00022738     1.51394766     1.46827082    -0.05338024    -0.04221907    97.47637746
Ti      2.66096629    -0.50478337     4.40481302     0.05338024     0.04221907   -97.47637746
O       0.00005650     0.50461411     0.95667736     0.05222118     0.04343855   -91.11313466
O       2.66068226     0.50455012     4.91640652    -0.05222118    -0.04343855    91.11313466
O      -0.00002307    -0.50466971     3.89321951    -0.00094385    -0.00002905    -0.24211213
O       2.66076173     1.51383390     1.97986438     0.00094385     0.00002905     0.24211213
