# total energy = -4984.74066395 eV

CRYSTAL
PRIMVEC
        3.44946965     0.00000000     0.00000000
        0.84909255     3.34333407     0.00000000
       -2.14931251    -1.67169147     4.43763480
PRIMCOORD
6 1
Ti      0.63670740     2.50762859     1.10940863     0.00173370    -0.00158071    -0.00032319
Ti      1.51254245    -0.83598586     3.32822589    -0.00173370     0.00158071     0.00032319
O       0.21230931     0.83582876     0.72285440     0.00086955     0.00225357     1.09265394
O       1.93694039     0.83581390     3.71478012    -0.00086955    -0.00225357    -1.09265394
O      -0.21228466    -0.83580959     2.94167165     0.00227954     0.00083124     1.09269971
O       2.36153435     2.50745219     1.49596286    -0.00227954    -0.00083124    -1.09269971
