# total energy = -19518.47173310 eV

CRYSTAL
PRIMVEC
        7.60600008     0.00000000     0.00000000
        0.00000000     7.60600008     0.00000000
       -1.89786986    -1.89786986     4.85670466
PRIMCOORD
23 1
Ti      3.73327099     6.74052101     1.24104099     1.50615973    -1.15032407    -0.40849419
Ti      3.77209397     2.85654198     1.14553502     0.27652173     0.85255139     1.10143966
Ti      0.01148902     6.64491201     1.23952198    -1.36241033    -0.42078330     0.40332653
Ti      0.04416699     2.87295298     1.07353601    -0.38593404     0.38647037     0.72564246
Ti      5.66818422     2.88045222     3.52216980    -1.22013288    -0.06301879     1.26824081
Ti      5.69374723    -1.00089178     3.64941979     1.05051740     0.16985948    -0.54590017
Ti      1.90589420     2.84058421     3.70214383     1.43871504     0.18911576    -0.13915715
Ti      1.93667925    -0.97613978     3.67075182    -0.99845872    -0.19800870    -0.28396559
O       3.96433502     4.74288901     0.74433702    -0.89951183    -0.11018390     1.26684856
O       3.84388100     0.98892502     0.83269898    -0.34569729    -1.33731970    -0.43104046
O      -0.26431001     4.76985498     0.75524198     1.38092434     0.54634240     0.65596785
O       0.06341999     0.94778799     0.90992499    -0.14266260    -0.42784201    -1.37406900
O       5.76978223     4.77712021     3.90831981     0.38285489    -0.00431431     0.92675396
O       5.91346824     1.08637221     4.09934481     0.31912673    -1.60323023    -0.95007156
O       1.73438521     4.72640720     3.97850681    -0.07055650     0.88159021     0.94230374
O       1.81267122     0.94324321     4.03820679    -0.30785964    -0.15078317     0.43026707
O       3.85026123     2.76970325     3.42684879    -0.82960300     0.43278187    -1.48198724
O       3.80801924    -0.90469180     3.33423181    -0.46068015     0.22156747    -0.65865285
O      -0.04605678    -0.81307576     3.23275282     0.85983481    -0.47595045    -0.47908309
O       5.69375501     6.54142098     1.61903902    -0.60744289     1.04963989     0.55972140
O       5.72152200     2.62280603     1.67409102     0.64063019     0.73918960    -0.51933938
O       1.91073602     6.53059099     1.65259499     0.06785015     0.06755910     0.19245254
O       1.88281202     2.79775398     1.79478100    -0.29218567     0.40509134    -1.20120390
