# total energy = -4911.88284900 eV

CRYSTAL
PRIMVEC
        6.13257649     0.00000000     0.00000000
       -0.00000758     2.04419216     0.00000000
       -3.06632727    -1.02222910     6.95691727
PRIMCOORD
6 1
Ti     -0.00026246     1.53319287     1.73922889    -0.04443999    -0.02878865    83.12398038
Ti      3.06650392    -0.51122986     5.21768736     0.04443999     0.02878865   -83.12398038
O       0.00006475     0.51102588     1.13322479     0.04284719     0.02866113   -80.12700244
O       3.06617654     0.51093707     5.82369152    -0.04284719    -0.02866113    80.12700244
O      -0.00002813    -0.51111173     4.61168326    -0.00113746     0.00004217    -0.68839641
O       3.06626931     1.53307463     2.34523305     0.00113746    -0.00004217     0.68839641
