# total energy = -19908.00133409 eV

CRYSTAL
PRIMVEC
        8.22427097     0.00000000     0.00000000
        0.00002693     3.75133333     0.00000000
        0.00000000     0.00000000    12.51669762
PRIMCOORD
24 1
Ti      2.98091849     2.22303668     4.64360555     0.08230747    -0.15360984     2.62079970
Ti      5.24337905     1.52829672     7.87309225    -0.08230747     0.15360984    -2.62079970
Ti      7.09291321     1.52829800     1.61469329     0.08107720     0.15423591    -2.62202817
Ti      1.13138433     2.22303552    10.90200463    -0.08107720    -0.15423591     2.62202817
Ti      2.98090520     0.34737007     1.61474350     0.08230747    -0.15360984    -2.62079970
Ti      5.24339234     3.40396339    10.90195442    -0.08230747     0.15360984     2.62079970
Ti      1.13137105     0.34736867     7.87304204    -0.08107720    -0.15423591    -2.62202817
Ti      7.09292650     3.40396478     4.64365576     0.08107720     0.15423591     2.62202817
O       2.60304308     1.32090823     6.38717503     2.09603864     0.75309105    -1.81752533
O       5.62125447     2.43042511     6.12952276    -2.09603864    -0.75309105     1.81752533
O       1.50915927     1.32092336     0.12886641    -2.09492149     0.75260228    -1.81655962
O       6.71513833     2.43041004    12.38783103     2.09492149    -0.75260228     1.81655962
O       5.62124124     0.55475844     0.12882580    -2.09603864    -0.75309105    -1.81752533
O       2.60305630     3.19657495    12.38787163     2.09603864     0.75309105     1.81752533
O       6.71512511     0.55474331     6.38721563     2.09492149    -0.75260228    -1.81655962
O       1.50917237     3.19659009     6.12948216    -2.09492149     0.75260228     1.81655962
O       0.29882304     2.28177357     3.38107232    -1.72969255     0.47779393     0.14859825
O       7.92547450     1.46955976     9.13562548     1.72969255    -0.47779393    -0.14859825
O       4.41096899     1.46952481     2.87731637    -1.73008876    -0.47739104    -0.14948322
O       3.81332855     2.28180858     9.63938125     1.73008876     0.47739104     0.14948322
O       0.29880982     0.40610690     2.87727643    -1.72969255     0.47779393    -0.14859825
O       7.92548773     3.34522649     9.63942119     1.72969255    -0.47779393     0.14859825
O       3.81331533     0.40614185     9.13566536     1.73008876     0.47739104    -0.14948322
O       4.41098222     3.34519154     3.38103238    -1.73008876    -0.47739104     0.14948322
