# total energy = -39036.07773128 eV

CRYSTAL
PRIMVEC
        7.60600008     0.00000000     0.00000000
        0.00000000     7.60600008     0.00000000
       -3.79573973    -3.79573973     9.71340985
PRIMCOORD
46 1
Ti      1.87976147     4.91911344     6.07324363     0.51856059     0.43553218     0.24223657
Ti      3.93066400     6.64815598     1.22355602    -0.73994782     0.77695115     0.28502515
Ti      1.83912145     0.98022344     6.07783260     0.07964561    -0.85242977     0.74385282
Ti      3.86246401     2.62065301     1.10479801    -1.76088133     0.30610126     0.02680222
Ti     -1.94391855     4.88052647     6.05717860    -0.34764104    -1.86751119     1.25657906
Ti      0.12230900     6.58203898     1.26305301     0.17620008    -1.05618797    -1.15847138
Ti     -2.13879056     0.92479445     6.04569360     0.12226551     1.24393205     1.55274403
Ti     -0.15207898     2.67376198     1.22467502     0.23348711     1.30421904    -1.62288786
Ti      3.59695546     0.87117144     8.61587962     0.68692549    -0.24808455     0.08762194
Ti      5.76386798     2.90388000     3.74578900    -1.82227184    -1.00593420     0.62913246
Ti      3.87191146    -2.99901956     8.49964065    -0.47835906     0.41181915     0.15501804
Ti      5.86897899    -0.93624600     3.57398499    -2.06856639     1.02377278     0.52432475
Ti     -0.16658457     0.84995048     8.34448964    -0.52472661    -0.05906957     0.59008202
Ti      1.88776401     3.05273502     3.32612900     1.40578563    -0.76532385     0.46799186
Ti      0.05381547    -2.98344455     8.49135162     0.22542541     0.21348315     0.94465605
Ti      2.08258897    -0.73851898     3.62353598     0.79726468    -0.49681625     0.35250069
O       2.12253847    -0.84356055     5.94954162    -0.65625453    -0.02628208    -1.82658641
O       3.69625398     0.84970901     0.85603898     0.08392675    -0.74714846    -1.18197719
O      -1.89731957     2.85284043     5.76571264    -0.16318566     1.11554525    -1.27099858
O      -0.05685798     4.57604598     0.94375598    -0.23912734     1.90239876    -0.56148054
O       5.34122343    -0.97183958     5.66006664     0.62780706     0.11991681    -0.27020402
O       0.02642500     0.84054398     0.83508298     0.34720936     0.03654156    -0.10981443
O       3.98584443     2.76910544     8.93447660    -0.64593694     0.46337338     0.99518364
O       5.73571501     4.77225199     3.98253401     0.22237865     0.88350902     0.77996526
O       3.83994746    -0.95873053     8.93577965    -0.65662065    -1.40467517     0.14416566
O      -1.63009898     0.95608899     4.24240899    -0.59122205     0.09129425    -0.97942046
O      -0.01538154     2.69621646     9.01699862    -0.22629161    -0.54882274    -0.40921205
O       1.89994599     4.78206998     4.08626301    -0.16469722     0.53274151     0.26702613
O       0.08758646    -0.99654554     8.85432763    -0.57959732     0.60614499     0.35906189
O       1.88200402     1.15762201     4.17762298    -0.38495445     0.65214179    -0.89490493
O       1.76771946     0.92831443     8.09106861     0.36524437     0.44977173     0.70794452
O       3.88762501     2.91434200     3.08895901    -0.84973834     0.11553153     1.02144979
O       1.91271646    -2.97454655     8.24750764     0.01432311    -0.18016164    -0.35702660
O       3.98383102    -0.42164102     3.14836000    -1.55153586    -1.45943300     0.85895575
O      -2.16133155     0.91206842     8.12046562     2.42727706    -0.54409628    -0.64597500
O      -0.10817801     2.90288198     3.14615201     1.75000299    -0.12446561    -0.07117690
O      -1.86896255    -2.81772153     8.11083460    -0.51254009    -0.10738139    -0.92518096
O      -0.00254301    -0.72393602     3.15542102     2.22219963    -0.51392463     0.68253867
O       3.66521446     4.66041446     6.53193664     1.80708716    -0.51236757    -0.06973349
O       5.75782700     6.70461501     1.57246502     0.55551096    -1.10705958     0.10902716
O       3.62893047     1.24237742     6.57015964     0.32617567     0.13837580    -0.83281610
O       5.56950102     2.80522898     1.46172102     3.54169386     0.07235550     0.49169795
O       0.07398247     4.76738843     6.58538365    -1.13468944    -0.06874695    -1.35988088
O       2.02608300     6.34624802     1.68832800     0.06703717     0.30980236     0.55284292
O      -0.09264454     0.92022744     6.54505960    -0.61491374     0.10168845    -1.40038554
O       2.00969502     2.84400799     1.43697500    -1.88973324     0.38897951     1.11970581
