# total energy = -19956.26222034 eV

CRYSTAL
PRIMVEC
        5.26819489     0.00000000     0.00000000
        1.38019993     5.43442395     0.00000000
        0.00000000     0.00000000     9.50460266
PRIMCOORD
24 1
Ti      2.72737252     3.22043476     3.52613997     1.12410806    -1.90539667     0.94507899
Ti      3.92102245     2.21398955     5.97846322    -1.12410806     1.90539667    -0.94507899
Ti      5.10577311     2.21399143     1.22612367    -2.14198324    -0.43428982     0.84430585
Ti      1.54262188     3.22043309     8.27847963     2.14198324     0.43428982    -0.84430585
Ti      2.03727267     0.50322283     1.22616178     1.12458217    -1.90577796    -0.94467816
Ti      4.61112232     4.93120170     8.27844152    -1.12458217     1.90577796     0.94467816
Ti      0.85252192     0.50322074     5.97842511     2.14219458     0.43380928     0.84114005
Ti      5.79587306     4.93120373     3.52617808    -2.14219458    -0.43380928    -0.84114005
O       2.15340881     1.91355318     4.85012621     0.53101810     1.03648509    -0.73099164
O       4.49498610     3.52087114     4.65447698    -0.53101810    -1.03648509     0.73099164
O       1.45270876     1.91357511     0.09785524     0.23993492    -0.49273848     0.50606040
O       5.19568627     3.52084930     9.40674769    -0.23993492     0.49273848    -0.50606040
O       3.80488623     0.80365905     0.09782440    -0.53105744    -1.03635885    -0.73109731
O       2.84350873     4.63076526     9.40677853     0.53105744     1.03635885     0.73109731
O       4.50558639     0.80363715     4.85015705    -0.23966650     0.49257213     0.50674020
O       2.14280853     4.63078722     4.65444614     0.23966650    -0.49257213    -0.50674020
O       1.03092154     3.30552483     2.56743045    -0.01549065     0.28169479     0.11733696
O       5.61747337     2.12889948     6.93717275     0.01549065    -0.28169479    -0.11733696
O       3.36618491     2.12884880     2.18490140     1.06874216    -0.00335349    -0.58838612
O       3.28221006     3.30557556     7.31970163    -1.06874216     0.00335349     0.58838612
O       0.34082167     0.58831274     2.18487104    -0.01575933     0.28197093    -0.11744032
O       6.30757330     4.84611163     7.31973199     0.01575933    -0.28197093     0.11744032
O       2.59211018     0.58836341     6.93720305    -1.06882289     0.00335349    -0.58828611
O       4.05628478     4.84606090     2.56740009     1.06882289    -0.00335349     0.58828611
