# total energy = -19910.67700482 eV

CRYSTAL
PRIMVEC
        6.56802998     0.00000000     0.00000000
        0.00002199     3.36573373     0.00000000
        0.00000000     0.00000000     9.92324960
PRIMCOORD
24 1
Ti      2.38060810     1.99453075     3.68145483    -0.96568048     1.61750037    -2.05545067
Ti      4.18744401     1.37120312     6.24179487     0.96568048    -1.61750037     2.05545067
Ti      5.66451066     1.37120432     1.28013038    -0.96603221    -1.61702369     2.05863061
Ti      0.90354150     1.99452971     8.64311947     0.96603221     1.61702369    -2.05863061
Ti      2.38059716     0.31166394     1.28017017    -0.96568048     1.61750037     2.05545067
Ti      4.18745501     3.05407004     8.64307967     0.96568048    -1.61750037    -2.05545067
Ti      0.90353051     0.31166265     6.24175508     0.96603221     1.61702369     2.05863061
Ti      5.66452160     3.05407133     3.68149462    -0.96603221    -1.61702369    -2.05863061
O       2.07883078     1.18513211     5.06375832     5.59045786    -2.12918942     4.31727899
O       4.48922138     2.18060176     4.85949138    -5.59045786     2.12918942    -4.31727899
O       1.20523827     1.18514565     0.10216541    -5.58696476    -2.12956558     4.31588314
O       5.36281394     2.18058822     9.82108399     5.58696476     2.12956558    -4.31588314
O       4.48921039     0.49773490     0.10213322    -5.59045786     2.12918942     4.31727899
O       2.07884172     2.86799897     9.82111622     5.59045786    -2.12918942    -4.31727899
O       5.36280300     0.49772136     5.06379051     5.58696476     2.12956558     4.31588314
O       1.20524906     2.86801257     4.85945919    -5.58696476    -2.12956558    -4.31588314
O       0.23864519     2.04723008     2.68051727     2.86931594    -0.88868645     1.23671445
O       6.32940693     1.31850385     7.24273243    -2.86931594     0.88868645    -1.23671445
O       3.52266840     1.31847243     2.28113911     2.87538015     0.88936754    -1.23468379
O       3.04538372     2.04726150     7.64211043    -2.87538015    -0.88936754     1.23468379
O       0.23863424     0.36436316     2.28110743     2.86931594    -0.88868645    -1.23671445
O       6.32941792     3.00137071     7.64214212    -2.86931594     0.88868645     1.23671445
O       3.04537277     0.36439458     7.24276406    -2.87538015    -0.88936754    -1.23468379
O       3.52267939     3.00133929     2.68048559     2.87538015     0.88936754     1.23468379
