# total energy = -4984.60691641 eV

CRYSTAL
PRIMVEC
        2.72817298     0.00000000     0.00000000
        0.84646291     4.18999181     0.00000000
       -0.00000564    -0.00005597     4.29638765
PRIMCOORD
6 1
Ti      1.78731508     2.09496793     2.14819392     0.00000000     0.00000000     0.00000000
Ti      0.00000000     0.00000000     0.00000000     0.00000000     0.00000000     0.00000000
O       1.52904850     0.81655683     0.83730273    -4.29180912     2.14349633     2.39467341
O       2.04558166     3.37337903     3.45908512     4.29180912    -2.14349633    -2.39467341
O       0.25826427     1.27838843     2.98549742     4.29246500    -2.14629627     2.39751576
O       0.58819300     2.91154732     1.31089042    -4.29246500     2.14629627    -2.39751576
