# total energy = -4987.31607620 eV

CRYSTAL
PRIMVEC
        3.24404266     0.00000000     0.00000000
        1.25118257     4.92653065     0.00000000
       -0.00000805    -0.00006661     5.12373568
PRIMCOORD
6 1
Ti      2.24760846     2.46323192     2.56186790     0.00000000     0.00000000     0.00000000
Ti      0.00000000     0.00000000     0.00000000     0.00000000     0.00000000     0.00000000
O       1.86585672     0.96009522     0.99854065     0.55464346    -0.27743628    -0.53699746
O       2.62936015     3.96636862     4.12519515    -0.55464346     0.27743628     0.53699746
O       0.38174833     1.50310974     3.56040957    -0.55460078     0.27768927    -0.53644468
O       0.86942607     3.42335420     1.56332622     0.55460078    -0.27768927     0.53644468
