# total energy = -78964.89661378 eV

CRYSTAL
PRIMVEC
       10.35150501     0.00000000     0.00000000
        0.00005674    11.01713167     0.00000000
        0.00000000     0.00000000     9.26345890
PRIMCOORD
94 1
Ti      7.18928555     8.68914111     3.27455086     0.00737753    -0.00542812     0.00306861
Ti      7.10616377     3.33127273     3.49688327     0.01724491    -0.01268351    -0.00014475
Ti      1.79835190     8.76742005     3.47053049    -0.01409119     0.01597864    -0.00781616
Ti      1.84860228     3.40368516     3.48883995     0.00727751    -0.00613388     0.01928945
Ti      8.37045845     7.68819125     5.74253814    -0.00876207     0.00318765    -0.00031290
Ti      8.54422175     2.19707606     5.84794831     0.00676637     0.00956888    -0.02299518
Ti      3.32544308     7.64345514     5.79348823     0.00040238     0.00728265     0.01405520
Ti      3.16220261     2.26929845     5.85186474     0.01214795     0.00586083    -0.00341263
Ti      9.74457430     7.68801049     1.11065699     0.00851498     0.00369468    -0.00005631
Ti      9.57160273     2.19744108     1.21659585    -0.00680340     0.00957248    -0.02293605
Ti      4.43828159     7.64293237     1.16174420    -0.00079036     0.00732893     0.01364691
Ti      4.60118077     2.26924365     1.21975102    -0.01177643     0.00565386    -0.00302568
Ti      5.96557520     8.76715233     8.10228713     0.01381506     0.01634219    -0.00792029
Ti      5.91515061     3.40373593     8.12044060    -0.00724023    -0.00595339     0.01937635
Ti      0.57440637     8.68928307     7.90623581    -0.00710962    -0.00550936     0.00298042
Ti      0.65697562     3.33163914     8.12889311    -0.01682505    -0.01282081    -0.00023346
Ti      7.04529774     6.04174730     1.18437367    -0.00588860    -0.00573228     0.00382992
Ti      7.02114161     0.53709885     1.18758293    -0.00250991     0.01393410     0.01825561
Ti      1.90304558     6.05538498     1.22439128    -0.00382529    -0.00812932     0.00862760
Ti      1.91085468     0.85772158     1.34648559    -0.01641367    -0.00983602     0.01037286
Ti      8.47541051    10.49383416     8.07032451     0.00728368    -0.00667716     0.01909533
Ti      8.49155623     4.96463854     8.04741516    -0.01570867    -0.00798328     0.01058858
Ti      3.48273295    10.39505445     7.91766704     0.00449403    -0.01224874    -0.01461184
Ti      3.28728944     4.94487159     8.08941273    -0.01293651     0.00329924     0.00842551
Ti      5.86025982     6.05520986     5.85597558     0.00354607    -0.00775394     0.00888959
Ti      5.85252978     0.85797236     5.97827794     0.01683893    -0.00990184     0.01059141
Ti      0.71857185     6.04184961     5.81609839     0.00564049    -0.00554227     0.00383840
Ti      0.74287265     0.53707119     5.81942255     0.00232351     0.01391302     0.01837105
Ti      9.64008138    10.49348062     3.43857640    -0.00725771    -0.00682602     0.01914778
Ti      9.62304802     4.96466728     3.41607371     0.01580046    -0.00836277     0.01080301
Ti      4.28208209    10.39520648     3.28554644    -0.00417136    -0.01257630    -0.01461930
Ti      4.47604048     4.94479514     3.45771290     0.01331241     0.00372476     0.00819539
O       6.76649370     7.47714661     4.71699186    -0.00894307     0.00467092     0.01105498
O       6.85196440     1.92524082     4.72561438     0.01017823     0.01490598     0.00037384
O       1.59632618     7.42956711     4.75016927     0.01007924     0.01018877    -0.00474137
O       1.67914850     1.87689908     4.67852346     0.01191064     0.02379788    -0.00287912
O       8.62358025     9.12339305     4.54691607     0.00053145     0.00179180     0.00161080
O       8.73705867     3.58475906     4.54352259     0.00057978     0.01121541    -0.01505407
O       3.48746984     9.09216634     4.54032978     0.00647815    -0.01528367     0.00459225
O       3.58426365     3.53886495     4.50591771    -0.02106788    -0.00266881     0.01502733
O       6.16755230     7.42938834     0.11840252    -0.01051479     0.01031527    -0.00457297
O       6.08430267     1.87685067     0.04678013    -0.01148409     0.02379403    -0.00288786
O       0.99706675     7.47707209     0.08517725     0.00899398     0.00465576     0.01099173
O       0.91155044     1.92519368     0.09387417    -0.01019623     0.01496305     0.00021803
O       9.49165326     9.12340847     9.17860377    -0.00032447     0.00188770     0.00163985
O       9.37793107     3.58476011     9.17528738    -0.00053350     0.01103107    -0.01498542
O       4.27667618     9.09230554     9.17203089    -0.00700832    -0.01553513     0.00456782
O       4.17922188     3.53898003     9.13775849     0.02097147    -0.00289789     0.01498774
O       8.72370115     6.33263664     0.08022985     0.02151294     0.01032633     0.00398238
O       8.68702096     0.83984443     0.10329971    -0.00050137    -0.00527488     0.01913853
O       3.57343110     6.34682757     0.08677925     0.01332680    -0.01581718    -0.01687518
O       3.22025134     0.56885849     0.05538104    -0.00006942    -0.01762338    -0.02564753
O       6.86449702    10.15152166     9.19108953     0.00748988     0.00023963     0.01053201
O       6.79416531     4.67282337     9.20308987    -0.00146836    -0.01177617    -0.00350981
O       1.64247797     4.69834042     9.16447034     0.00284056     0.01775605     0.00635654
O       9.39142289     6.33279076     4.71195111    -0.02159727     0.01010701     0.00414539
O       9.42817383     0.83975630     4.73497685     0.00077699    -0.00524197     0.01909430
O       4.19019505     6.34676745     4.71866221    -0.01373947    -0.01579429    -0.01690912
O       4.54370101     0.56870449     4.68711937    -0.00017869    -0.01798487    -0.02555935
O       6.12099517     4.69828841     4.53271217    -0.00333009     0.01792805     0.00638714
O       0.89940502    10.15145836     4.55934696    -0.00726440     0.00071734     0.01061995
O       0.96934840     4.67295040     4.57127940     0.00173781    -0.01207596    -0.00347510
O       5.41543382     8.97756202     2.66931708    -0.01362454     0.01519677    -0.02029655
O       5.40219222     3.39133366     2.44525418     0.00543017    -0.01161213     0.00545794
O       0.15335526     8.85748628     2.49945134    -0.00293800     0.00249988    -0.00181571
O       0.20710479     3.35677628     2.49964145    -0.00502060     0.01218703     0.01468769
O      10.10521868     7.59876642     6.75574971    -0.01405494     0.01136531    -0.00523605
O      10.19600982     2.14493635     6.78623640    -0.00855998    -0.00090991    -0.01910279
O       4.96130099     7.66752131     6.77636642    -0.00018846    -0.00500337     0.01191990
O       4.93180390     2.19791951     6.77128606     0.00006351    -0.01240815    -0.01336229
O       8.01003713     7.59862748     2.12410503     0.01421178     0.01147072    -0.00506405
O       7.91923492     2.14496885     2.15452238     0.00875384    -0.00082250    -0.01920229
O       2.80241678     7.66745456     2.14451855    -0.00023834    -0.00486196     0.01228551
O       2.83150135     2.19777969     2.13944603     0.00005399    -0.01215747    -0.01296196
O       7.61057734     8.85754341     7.13124135     0.00283618     0.00254334    -0.00191136
O       7.55633173     3.35667120     7.13135147     0.00557750     0.01260612     0.01449023
O       2.34846364     8.97781379     7.30132996     0.01388319     0.01529524    -0.02079792
O       2.36116291     3.39151117     7.07695665    -0.00542503    -0.01190267     0.00537284
O       5.39346944     6.16917964     2.16714478     0.01816665    -0.00284878    -0.00258602
O       5.29587659     0.57640254     2.06037279     0.00353912     0.01444626    -0.02366264
O       0.24147026     6.10979309     2.13482868    -0.01934910    -0.01166304    -0.00388597
O       0.14680431     0.59315200     2.12701278     0.00644422    -0.01005379     0.00494295
O      10.25124405    10.42713642     7.21472512     0.02348009    -0.00383352    -0.00992626
O      10.12876422     4.90619471     7.12646720     0.01737886    -0.00822111    -0.00276625
O       5.11251674    10.40241999     7.08233248     0.01132314    -0.00109503    -0.01884516
O       4.96568648     4.89335790     7.11199313    -0.00445547     0.00075642     0.01386288
O       7.52201324     6.10987646     6.76661169     0.01897089    -0.01164556    -0.00414128
O       7.61690902     0.59337660     6.75873945    -0.00644653    -0.01033610     0.00474986
O       2.37010070     6.16924707     6.79891092    -0.01834688    -0.00286755    -0.00272434
O       2.46796672     0.57635445     6.69200534    -0.00364531     0.01454345    -0.02367755
O       7.86406040    10.42704071     2.58301810    -0.02304789    -0.00376281    -0.01011704
O       7.98608315     4.90605233     2.49478872    -0.01685410    -0.00796939    -0.00258987
O       2.65190321    10.40249429     2.45077282    -0.01218909    -0.00117757    -0.01892821
O       2.79784833     4.89338928     2.48019339     0.00440816     0.00068006     0.01424340
