# total energy = -19885.69898759 eV

CRYSTAL
PRIMVEC
        7.68599247     0.00000000     0.00000000
        0.00002390     2.72674009     0.00000000
        0.00000000     0.00000000    12.22776575
PRIMCOORD
24 1
Ti      2.78581658     1.61586356     4.53641399    -0.50640364     0.52476209     0.70445039
Ti      4.90019947     1.11087627     7.69135213     0.50640364    -0.52476209    -0.70445039
Ti      6.62868171     1.11087715     1.57742022    -0.50536337    -0.52492124    -0.70411974
Ti      1.05733440     1.61586279    10.65034600     0.50536337     0.52492124     0.70411974
Ti      2.78580494     0.25249357     1.57746926    -0.50640364     0.52476209    -0.70445039
Ti      4.90021116     2.47424636    10.65029697     0.50640364    -0.52476209     0.70445039
Ti      1.05732271     0.25249264     7.69130310     0.50536337     0.52492124    -0.70411974
Ti      6.62869339     2.47424729     4.53646302    -0.50536337    -0.52492124     0.70411974
O       2.43267344     0.96013146     6.23973541     6.64988903    -0.52027474     1.73692533
O       5.25334266     1.76660842     5.98803071    -6.64988903     0.52027474    -1.73692533
O       1.41038433     0.96014252     0.12589172    -6.65045056    -0.52045421     1.73711147
O       6.27563183     1.76659735    12.10187403     6.65045056     0.52045421    -1.73711147
O       5.25333098     0.40323833     0.12585201    -6.64988903     0.52027474     1.73692533
O       2.43268512     2.32350150    12.10191374     6.64988903    -0.52027474    -1.73692533
O       6.27562014     0.40322731     6.23977507     6.65045056     0.52045421     1.73711147
O       1.41039585     2.32351257     5.98799105    -6.65045056    -0.52045421    -1.73711147
O       0.27926423     1.65855789     3.30302464     0.68032546    -0.10881375     4.38451747
O       7.40675187     1.06818194     8.92474142    -0.68032546     0.10881375    -4.38451747
O       4.12227063     1.06815666     2.81089726     0.68099549     0.10905852    -4.38451927
O       3.56374548     1.65858322     9.41686865    -0.68099549    -0.10905852     4.38451927
O       0.27925254     0.29518784     2.81085823     0.68032546    -0.10881375    -4.38451747
O       7.40676356     2.43155203     9.41690768    -0.68032546     0.10881375     4.38451747
O       3.56373384     0.29521312     8.92478040    -0.68099549    -0.10905852    -4.38451927
O       4.12228226     2.43152671     3.30298561     0.68099549     0.10905852     4.38451927
