# total energy = -39033.50479364 eV

CRYSTAL
PRIMVEC
        5.93200024     0.00000000     0.00000000
        0.00000000     9.29399984     0.00000000
        0.00000000     0.00000000     9.29399984
PRIMCOORD
46 1
Ti      4.38157498     7.21263898     6.87383298     1.03627580    -1.22315290    -0.65544360
Ti      4.46216698     6.67617401     2.62644999    -0.82189457    -0.64467325    -1.05815667
Ti      4.36638998     2.23898900     7.05194700     1.55848324    -0.86769185     0.93322955
Ti      4.41818098     2.51161303     2.04968902    -0.20112693    -0.61521071     0.68049361
Ti      1.49972198     6.83538000     7.13046400    -0.69798175    -0.10949818    -0.21990833
Ti      1.37949900     7.16003903     2.10194898     1.56227922    -1.40503924     0.18984184
Ti      1.52025099     2.47857803     6.87628799    -1.82750661    -1.07653029     1.01826393
Ti      1.52052600     2.10589098     2.67240999    -0.52251443    -0.19468015    -1.19070454
Ti      2.88170203     4.68621100     4.56219800     0.62177268     0.87536068    -0.05274774
Ti      2.98414302     4.65976902     8.99382600    -1.05763448     1.46691517     1.14804890
Ti      3.05669502     9.19324899     4.66260599    -0.80649700    -0.01998391    -1.16081006
Ti      3.00878400     9.20376998     0.08306702    -1.68891098     0.94031962     0.95197187
Ti      5.89790699     4.72052899     4.67017799    -0.72735507     0.34930763     0.72991872
Ti      5.88514303     4.74203798     9.20440801     0.69530780     0.86646183     0.95123782
Ti      0.08376500     9.16769899     4.74668802     0.13489992    -0.99440100     0.99774652
Ti      5.91364800     9.23408798     0.00595102     1.30530482     1.87689572     0.06514201
O       4.53929002     5.93181402     5.43320602    -0.31269254    -1.67231245    -0.20103849
O       4.38537500     5.41681301     0.92491103     0.44802029    -0.49221680     0.39325629
O       4.35574002     0.63419300     5.68586202     1.02533935     1.44209707     0.18798293
O       4.30894398     1.18936699     0.65576100     0.98879625    -0.61825335     1.48944704
O       1.52738700     5.57345498     5.68220598     0.02528244    -0.34817326    -0.27417869
O       1.52654100     5.74044601     0.59510400    -0.44435107    -1.17613332     1.08994786
O       1.55153198     0.90402101     5.38739800    -0.32975696     1.28819849     0.11039087
O       1.54513502     0.65484902     1.11140902    -0.90104755     1.50361280     0.48440784
O       4.45486402     8.48356800     8.30257002    -0.06600307     0.16039473     0.48582658
O       4.57420302     8.07193499     3.81681998    -0.42375241     1.56842339     0.74518053
O       4.43076698     3.64865100     8.47657900     0.60935219    -0.78815011    -0.14501027
O       4.47322102     4.15675498     3.44776600    -1.07187942    -1.53971316     0.91891492
O       1.38628998     8.31901801     8.58434701     0.97832311    -0.76708968    -1.30675030
O       1.34396601     8.48948500     3.62032398     0.48930040    -0.15041679    -0.33618678
O       1.51576198     4.04736600     7.93260701    -0.25540166    -0.67009298     1.86332877
O       1.44151698     3.57275698     4.02481998     0.71373979    -0.87060774    -1.00016001
O       3.17997601     6.16011601     7.99689998    -0.22752934     0.90233979    -1.72421173
O       2.71281701     6.07332502     3.27227802     1.08962852    -0.06476148    -0.08227585
O       2.82544202     1.50974100     8.09279801     0.05809873     0.37462941    -2.29519173
O       3.22569603     1.27875799     3.11674801     0.31714672     1.11466645     0.42592654
O       5.77570298     6.05685199     7.95820099    -0.04342543     0.88867848    -1.11860024
O       0.25841900     5.85129701     3.11058002    -0.71875987     1.77471336    -0.50980187
O       0.15008202     1.42047801     7.92104301    -0.44569550     0.38352209    -0.65816332
O       2.78325199     7.90781601     6.07335201     0.21900845    -0.41448101     0.49660413
O       3.04272299     7.87210300     1.54428098     0.72012950    -0.15902896    -0.55505381
O       3.10969402     3.22940799     6.15487800     0.15538956     0.25057904    -1.47029489
O       0.20944301     7.89356802     6.12028198    -0.66762781     0.33824032     0.23063344
O       5.79723102     7.89086001     1.44100601    -1.35088536    -0.32371821     0.06118379
O       5.78387099     3.35519702     6.12912999    -0.13841899    -1.08463853    -0.46959263
O       0.17411403     3.08048598     1.58204498     0.99676950    -0.07470652    -0.16464451
