# total energy = -19075.92124981 eV

CRYSTAL
PRIMVEC
        7.60600008     0.00000000     0.00000000
        0.00000000     7.60600008     0.00000000
       -1.89786986    -1.89786986     4.85670466
PRIMCOORD
22 1
Ti      3.83346001     6.61762901     1.25450400     0.96749774     0.77370205    -0.35717007
Ti      3.65276699     2.85827800     1.18516400     0.73830026    -0.37962944     0.77320968
Ti      0.20254100     6.66546002     1.04805698    -2.01994424    -0.57617415    -0.11394748
Ti     -0.02482201     2.80103901     1.17618000    -0.82746075     0.34790535    -0.34352728
Ti      5.68574523     2.76131621     3.51591784    -0.62824800     0.45091047     0.54747600
Ti      6.12761220    -0.82285078     3.61461379    -1.00684977    -1.45978087    -0.04295595
Ti      1.84767523     2.89744224     3.72000383     0.72982384    -1.47698953    -1.18320129
Ti      1.45924125    -0.98994580     3.81253280     0.86597538     1.40964126     0.47070283
O       3.81885298     4.71334102     0.81191898    -0.42491146     1.72021881     0.56911210
O       3.87434901     0.99099701     0.88986298    -0.52624125    -1.12747672     0.32838836
O       0.17673599     4.60121900     0.67050800    -0.15540267     1.84325539    -0.28686014
O      -0.17536199     0.94890900     0.66794901     1.01345262    -0.37528067     0.47379175
O       5.79493524     4.75408222     4.05004184     0.39281663     0.26235289    -1.20519066
O       5.39049824     0.88432620     3.88114280     1.12581861    -0.14242348    -0.11043484
O       1.99850223     4.77968625     4.21228181    -0.77128058     0.44312234    -0.61327261
O       1.98166021     0.97127621     4.08578781    -0.99866569    -1.01735093    -0.09225096
O       3.71986524     2.84112424     3.23310482     0.31556215     0.50546750    -0.36310341
O      -0.03609375     2.70040923     3.13392182     0.91089179     0.06718912     0.97919986
O       5.79897402     6.53522198     1.73837801    -0.21251281     0.23950966     0.31886345
O       5.77322701     2.97299902     1.58341200    -1.63470311    -0.15834556     0.44139816
O       1.85133000     6.82130701     1.95435001     1.24978054    -0.78395638    -0.46197110
O       1.83584003     2.98033500     1.62603702     0.89630052    -0.56586659     0.27174359
