# total energy = -19960.79000944 eV

CRYSTAL
PRIMVEC
        7.60600008     0.00000000     0.00000000
        0.00000000     7.60600008     0.00000000
       -1.89786986    -1.89786986     4.85670466
PRIMCOORD
24 1
Ti      3.80707598     6.58215101     1.19416202    -1.08115571    -0.90858474     1.13810721
Ti      3.81526399     2.76705498     1.14122101    -1.75319219     1.30592677     0.61106789
Ti      0.05605400     6.70137300     1.25805499     0.55235852     0.52586998    -0.14536611
Ti     -0.09191602     2.97703701     1.20649799     3.09099782    -1.01189608    -0.28217842
Ti      5.66597321     2.94936824     3.62495582     1.43481828    -1.51298319    -0.01371273
Ti      5.69273920    -0.96345180     3.64238781     0.00616397     1.36048740     0.95965278
Ti      1.96562921     2.83075623     3.66223381    -1.47056614    -1.09857597    -1.83700427
Ti      1.85526422    -1.07554779     3.75297480     0.22784713     1.27371289    -1.69382694
O       3.64147901     4.63820499     0.74892001     1.39924242     2.48408638     0.12196058
O       3.68266101     0.92606098     0.80563500     0.49243277    -1.87207259     0.40993247
O       0.08067201     4.80213500     0.69790198    -0.87217637     0.23033365     0.35973089
O      -0.00252201     0.96822498     0.83935201    -0.21546855     0.14950533    -0.61753164
O       5.81072324     4.78250422     4.06914281    -0.41873722     0.37045702    -0.25135757
O       5.92145120     1.00534020     3.92861381    -1.19097476    -0.66033410     0.75036594
O       1.80517521     4.66243322     4.01193679     0.59922667     0.65289769     1.37594591
O       1.79791320     0.86143923     4.10817381     0.69499824     0.41891076    -1.04365435
O       3.79500624     2.81177924     3.10140779     0.88352933    -0.18281116     1.69857422
O       3.72105223    -1.02184180     3.25393382     0.85562977     0.02885679    -0.18121707
O       0.03442520     2.87244523     3.11640484    -0.00838823     0.14614516     0.39999335
O       0.06770024    -0.98667776     3.18802183    -1.04841861    -0.23518995     0.36455814
O       5.67840501     6.61785301     1.75063497    -0.45490751    -0.11382201    -1.47193988
O       5.78016601     2.95184399     1.63411099    -2.37777071     0.11656306    -0.77430600
O       1.88766701     6.63243301     1.60596903     0.80410047     0.00522140    -0.03292350
O       1.95162798     3.12147398     1.64195700    -0.14958992    -1.47270427     0.15512885
