# total energy = -19957.89664196 eV

CRYSTAL
PRIMVEC
        7.60600008     0.00000000     0.00000000
        0.00000000     7.60600008     0.00000000
       -1.89786986    -1.89786986     4.85670466
PRIMCOORD
24 1
Ti      3.84729302     6.68719201     1.33208302    -3.36188909     2.62226677     0.76082313
Ti      3.70750397     2.98681499     1.28433901    -0.07210533    -1.37567131    -0.36414393
Ti      0.03540598     6.39886798     1.18559401     1.36381055     2.25152436     0.63751324
Ti      0.18031302     2.70826799     1.08448702    -0.77596642    -1.27772613     0.80828803
Ti      5.79391922     2.76522223     3.51977184     0.95968158    -0.47114994    -0.92239877
Ti      5.65842523    -1.08044278     3.62568682    -0.13781581     0.17514156     2.44481071
Ti      1.92696525     3.03020922     3.83489879    -1.01617234     0.70130773    -3.16605992
Ti      1.75830524    -0.81325177     3.69998183     0.05676715    -0.53644648    -1.00482785
O       3.26261302     5.04413803     0.75998801     2.15179097    -0.99563333     0.29395099
O       3.56505898     1.05150499     0.84948300     0.49144753     0.04804879    -0.56347829
O       0.04978097     4.66929400     0.84028802    -0.58550006    -1.05936586    -1.26226377
O       0.46449300     0.77119901     0.73934597    -2.10582683     1.72986687    -0.55413053
O       5.87763522     4.59388121     4.01781283    -1.01661457    -0.23831178     0.00034479
O       5.88640723     0.79181623     3.84877583    -0.76482711     1.46624848     1.69784686
O       1.89566923     4.93490621     3.65119481     0.07330706    -0.72042286     2.56832218
O       1.78327621     1.24508025     4.12245080     0.82743761    -2.98437851     1.06021741
O       3.85087725     2.79933321     3.22149483    -0.60013530     0.50534640     0.15098166
O       3.67310523    -0.87389977     3.34658080     1.22689283     0.10854790    -0.38190229
O       0.13731224     2.68055625     3.08464880    -1.85609112     0.51933526     0.20426060
O      -0.21779179    -1.09684976     3.07948282     3.25938766     0.22428461     0.52236222
O       5.57622099     6.61015502     1.74604701     0.61240589    -0.44626011    -2.82541639
O       5.71070001     2.79536401     1.55906900    -0.11216853     0.38089802     0.11610798
O       1.88141600     6.71545801     1.76175399    -1.04498722     0.23044523     0.02313917
O       1.83184701     3.17060201     1.62131898     2.42717191    -0.85789517    -0.24434771
