# total energy = -19514.33121686 eV

CRYSTAL
PRIMVEC
        5.93400000     0.00000000     0.00000000
        0.00000000     9.29699974     0.00000000
        0.00000000     0.00000000     4.64899994
PRIMCOORD
23 1
Ti      4.44935402     7.33852601     2.16961302     2.93626826    -0.81422419    -0.61499731
Ti      4.29639300     2.13317202     2.43999899    -2.02659646     0.40921642     1.93824612
Ti      1.69763501     6.93734399     2.40468800    -3.88156760    -0.38177991     0.73489175
Ti      1.18918098     2.47301399     2.15623399     1.87246751    -0.62747976     1.28392789
Ti      2.93939198     4.54182102     0.19914099     2.59514034    -0.07617899    -0.65582464
Ti      3.06526700     8.93943399     4.54014300    -2.33733444     2.67332761    -2.84034525
Ti      0.07465299     4.67604302     4.44100497    -1.94283811     1.53226364    -0.51854696
Ti      0.01462402     0.20141402     0.18084701     2.55280505    -1.60967598    -0.54929403
O       4.53172601     5.65060902     0.67039799    -1.34931493     0.55354380     0.88926907
O       4.49718698     0.78253901     1.18063302    -0.04221676    -0.76972301    -1.41386507
O       1.58654002     5.51595601     0.93842198    -0.62527041     0.17919002    -0.23082550
O       1.47144100     0.97619100     0.97523499    -0.75500498     0.29136497    -0.35703817
O       4.57650102     8.18255500     3.81847699     0.46646256     0.14262043    -0.29426544
O       4.34613402     3.65104298     3.88540400     1.16527092    -0.50834739    -1.46512594
O       1.40137799     8.36264301     3.68414699     0.93237157    -0.32533954     1.26973694
O       1.62077202     4.01928500     3.37996702     0.12223235    -0.66061666     2.19949627
O       2.92820999     0.99955100     3.20244101     1.68600615     3.00078575    -0.20895029
O       0.20229901     6.06554399     3.20747698    -1.54207086    -0.74717031     0.41337595
O       0.02578802     1.48607900     3.40807400    -0.58415588     0.74322392    -1.02019971
O       2.68075199     8.12494199     1.37978697     2.47482552    -2.18151551     2.36088062
O       2.90573498     3.19217699     1.40478901     0.34095360    -1.23654861     0.77210385
O       0.24491699     7.76535001     1.47688603    -1.93964274     1.19904083    -1.04062122
O       5.76460502     3.37893798     1.51615802    -0.11879092    -0.78597753    -0.65202918
