# total energy = -19517.86223538 eV

CRYSTAL
PRIMVEC
        7.60600008     0.00000000     0.00000000
        0.00000000     7.60600008     0.00000000
       -1.89786986    -1.89786986     4.85670466
PRIMCOORD
23 1
Ti      3.70565000     6.75960801     1.19705302     0.87668531     0.02277947    -0.54283901
Ti      3.85081099     2.94767000     1.22143502    -0.20142595    -0.23566020     0.37080104
Ti      0.01630501     6.55872698     1.21686801     0.19271197     0.74390192    -0.67138753
Ti      0.02904500     2.75727801     1.21803702     0.13122041    -1.20673949    -0.05896262
Ti      5.72333221     2.73089223     3.65198979    -1.30232697     0.44279349     0.82739107
Ti      5.63940724    -1.02921377     3.49070080    -0.38949476    -0.03952044     3.55362507
Ti      1.95062423     2.93003025     3.65570779     0.50553769     0.46553311     0.14707024
Ti      1.82945423    -0.84685976     3.64216281     0.39362087    -0.62133611    -1.26176395
O       4.04130999     4.92088301     0.80586398    -0.97639350    -1.81244817     0.46429769
O       3.92328701     0.97271902     0.55645200     0.23017038     0.22538042     3.82139091
O      -0.02006598     4.59597400     0.91793700     0.66392182     2.39697635     0.05740427
O      -0.00594901     0.93926501     0.69812899     0.07049196    -0.86461295     0.51021916
O       5.58893124     4.64977022     4.11708680     0.51898919     0.17057862    -0.30392070
O       5.52961423     0.97154324     4.11075683     0.58039950    -1.25626872    -1.02099830
O       1.86602922     4.81808023     3.96220180    -0.48732707    -1.15683950     0.00372270
O       1.94449721     0.97589720     4.09024481    -0.85060275     1.66742941     0.66825670
O       3.70947024     2.73627322     3.32457084     1.96985039     0.66752393    -1.27622846
O       3.71888123    -0.96807776     3.16257883     1.67830364     0.03985520    -0.28972590
O       0.00849123    -0.96517279     3.28830283    -0.50415752    -0.02026467    -0.64205715
O       5.80603701     6.73931798     1.73129101    -0.88644291     0.12903549    -2.22018748
O       5.72447301     2.71362702     1.78168302     0.13871672     0.19664293    -0.73486886
O       1.95019200     6.89026102     1.58664099    -1.67591097    -0.54036844    -0.68127728
O       1.93600000     2.68873998     1.71808200    -0.67653771     0.58562810    -0.71996160
