# total energy = -19946.76415696 eV

CRYSTAL
PRIMVEC
        6.52144827     0.00000000     0.00000000
        0.00002567     4.62719530     0.00000000
        0.00000000     0.00000000    10.13190838
PRIMCOORD
24 1
Ti      2.36372665     2.74207163     3.75886574     0.32671303     0.49256518    -0.30548239
Ti      4.15774740     1.88512367     6.37304275    -0.32671303    -0.49256518     0.30548239
Ti      5.62433836     1.88512528     1.30704800     0.32843798    -0.49290251     0.30617351
Ti      0.89713568     2.74207024     8.82486055    -0.32843798     0.49290251    -0.30617351
Ti      2.36371381     0.42847409     1.30708861     0.32671303     0.49256518     0.30548239
Ti      4.15776023     4.19872138     8.82481994    -0.32671303    -0.49256518    -0.30548239
Ti      0.89712285     0.42847237     6.37300208    -0.32843798     0.49290251     0.30617351
Ti      5.62435119     4.19872310     3.75890636     0.32843798    -0.49290251    -0.30617351
O       2.06408864     1.62931415     5.17023531     1.14133703     0.14421632     0.11312832
O       4.45738540     2.99788121     4.96167318    -1.14133703    -0.14421632    -0.11312832
O       1.19669183     1.62933280     0.10431368    -1.14071199     0.14346812     0.11302677
O       5.32478232     2.99786256    10.02759448     1.14071199    -0.14346812    -0.11302677
O       4.45737262     0.68428350     0.10428079    -1.14133703    -0.14421632     0.11312832
O       2.06410142     3.94291180    10.02762738     1.14133703     0.14421632    -0.11312832
O       5.32476949     0.68426491     5.17026815     1.14071199    -0.14346812     0.11302677
O       1.19670450     3.94293050     4.96164029    -1.14071199     0.14346812    -0.11302677
O       0.23695504     2.81452248     2.73688124    -0.82360255     0.21327951     0.76566941
O       6.28451901     1.81267287     7.39502725     0.82360255    -0.21327951    -0.76566941
O       3.49768647     1.81262973     2.32910523    -0.82349482    -0.21295710    -0.76554496
O       3.02378758     2.81456563     7.80280310     0.82349482     0.21295710     0.76554496
O       0.23694221     0.50092478     2.32907284    -0.82360255     0.21327951    -0.76566941
O       6.28453184     4.12627053     7.80283543     0.82360255    -0.21327951     0.76566941
O       3.02377480     0.50096792     7.39505954     0.82349482     0.21295710    -0.76554496
O       3.49769924     4.12622743     2.73684890    -0.82349482    -0.21295710     0.76554496
