# total energy = -19957.98754680 eV

CRYSTAL
PRIMVEC
        5.93400000     0.00000000     0.00000000
        0.00000000     9.29699974     0.00000000
        0.00000000     0.00000000     4.64899994
PRIMCOORD
24 1
Ti      4.47083702     7.00923801     2.24755300    -1.34600206    -0.82946004    -0.14142770
Ti      4.49200200     2.12196500     2.47689000    -3.75410717     3.04398801    -0.85002348
Ti      1.41358299     6.96746899     2.41110502     1.41014956    -0.79207053     0.13693803
Ti      1.41286098     2.36990603     2.02770599     2.09135511     2.43560719     0.96332098
Ti      2.93470500     4.46241602     0.07260698    -1.30124299     3.23178840    -0.79200728
Ti      3.14833899     0.03537100     4.61447102    -1.54526957    -3.67006729     0.37717660
Ti      5.90325999     4.62390202     0.08541402     0.71173484     3.02500349    -0.88394097
Ti      0.08100402     0.35671600     4.50251299     0.57008166    -6.47626391     1.27529232
O       4.41482499     5.49537001     1.06721298     0.45285397     0.23644105    -0.67891058
O       4.48413599     0.98392498     0.94013800    -0.39917008    -0.36530787    -0.60981267
O       1.46000702     5.48855399     0.94600001    -0.42761678    -0.55889710     0.13297853
O       1.43097799     1.08386502     0.71689002     1.79914450     0.74838722     1.47333753
O       4.39147398     8.23671200     3.86397100     0.17142914     2.31081633     0.27026187
O       4.35441200     3.73683198     3.87028800     1.39688626    -1.82130022    -2.08931571
O       1.31165800     8.41317399     3.79082399     0.23752991     1.63484452     1.03224045
O       1.40004801     3.65270100     3.85777603     0.53769526    -0.92860130    -1.09435061
O       2.90212001     6.21849299     3.23973002     1.33407625    -1.34206518     0.98187021
O       2.90338898     1.31464197     3.22621197     0.75318001     0.93277729    -1.22253095
O       0.08427502     5.99721599     3.32425100    -1.50074730    -0.22909720    -0.08928390
O       0.07199499     1.34474099     3.03490302     0.92382316     0.86140652    -0.75691557
O       2.85832499     7.82998499     1.40146700     1.55384883     1.78401741    -0.68056766
O       3.15870499     3.29996499     1.44010302    -1.67876052    -2.68858763     2.18102520
O       0.10504100     7.94139199     1.57554599    -2.38374262     0.67412987    -0.93660335
O       5.83273098     3.17305501     1.34217798     0.39287011    -1.21748876     2.00124871
