# total energy = -19958.50575859 eV

CRYSTAL
PRIMVEC
        5.93400000     0.00000000     0.00000000
        0.00000000     9.29699974     0.00000000
        0.00000000     0.00000000     4.64899994
PRIMCOORD
24 1
Ti      4.43731402     7.06328600     2.45947399     0.75364512    -2.95292696    -1.43290358
Ti      4.47268698     2.22062200     2.24011800    -1.87990288    -0.35892768     2.73574400
Ti      1.52730000     6.97731502     2.26235498    -1.12789478    -0.71239664     0.97575587
Ti      1.41351298     2.60113601     2.20498000     2.36436292    -2.75387028     1.18626836
Ti      2.86044201     4.77640799     0.07417499     2.55715356    -1.53144268    -0.08165055
Ti      3.09055098     9.07082298     4.56377902    -2.88056066     3.74362375     0.07060792
Ti      5.90881598     4.61194902     4.59992399    -2.59967242    -0.69194017    -1.27249702
Ti      0.02565102     9.26630799     0.19081602     1.77834196     2.34184622    -1.08876181
O       4.34037001     5.68045801     0.94441602     0.71895039    -0.25751896    -0.68204810
O       4.46488002     0.89745398     0.88929999     0.01815739    -1.31312663    -0.98219674
O       1.38153897     5.42100399     0.99911999     0.13275022     0.88048797    -0.27024438
O       1.31155502     0.89803702     0.99198202     0.89100739    -0.12341763    -0.92063191
O       4.47505102     8.50307300     3.63845402     1.43984787    -1.43688108    -0.21349729
O       4.40559402     3.64304701     3.73606801     1.22482901     1.95108236     1.03204839
O       1.67421702     8.21634497     3.77281900    -1.16977858     0.81972584     0.56193923
O       1.46780201     3.63290300     3.76738901    -0.58717487     1.22691880     0.65326331
O       2.85058402     5.96566100     3.21540702     1.48170570     0.91138159    -0.43750705
O       3.02052898     1.31673498     3.17058798    -0.14572401     0.09768139     0.23850642
O       0.14158301     6.08130998     3.21441402    -1.87792725    -0.09577029     0.76089924
O       5.91488501     1.45286302     3.11105501     0.71827933    -0.34680621     0.70330985
O       2.96959001     7.90185398     1.57753300     1.18740530     0.72525191    -1.58898991
O       3.10677201     3.37648000     1.33674698    -1.59752777    -1.20881308     0.92968477
O       0.02915301     7.82930399     1.33389900    -0.82471995    -0.78928654     1.10037008
O       5.90398401     3.25388398     1.46749599    -0.57555297     1.87512526    -1.97746908
