# total energy = -4979.39692944 eV

CRYSTAL
PRIMVEC
        3.66401365     0.00000000     0.00000000
        0.00000000     5.74096008     0.00000000
        0.00000000    -0.00007450     5.74096008
PRIMCOORD
6 1
Ti      1.83200676     2.87044272     2.87047998     0.00000000     0.00000000     0.00000000
Ti      0.00000000     0.00000000     0.00000000     0.00000000     0.00000000     0.00000000
O       1.83200676     1.11881403     1.11882855    -0.00000000    -0.96434273    -0.96434273
O       1.83200676     4.62207142     4.62213140     0.00000000     0.96434273     0.96434273
O       0.00000000     1.75159849     3.98930969    -0.00000000     0.96476028    -0.96476028
O       0.00000000     3.98928696     1.75165026     0.00000000    -0.96476028     0.96476028
