# total energy = -4899.38685237 eV

CRYSTAL
PRIMVEC
        4.89845480     0.00000000     0.00000000
       -0.00000640     2.09933791     0.00000000
       -2.44925550    -1.04974490     5.31591640
PRIMCOORD
6 1
Ti     -0.00020931     1.57456862     1.32897905    -0.05223661    -0.04750269    88.97237193
Ti      2.44940197    -0.52497556     3.98693725     0.05223661     0.04750269   -88.97237193
O       0.00005205     0.52482161     0.86591934     0.05119505     0.04958837   -80.11559111
O       2.44914047     0.52477140     4.44999702    -0.05119505    -0.04958837    80.11559111
O      -0.00002048    -0.52485961     3.52387754    -0.00022729     0.00033527     0.61476256
O       2.44921295     1.57445257     1.79203882     0.00022729    -0.00033527    -0.61476256
