# total energy = -19069.11985646 eV

CRYSTAL
PRIMVEC
        5.17600016     0.00000000     0.00000000
        0.00000000     5.50899976     0.00000000
        0.00000000     0.00000000     9.26300011
PRIMCOORD
22 1
Ti      1.61471601     3.31750198     3.21226101     0.00870473     1.99233392     1.36617263
Ti      4.04533999     2.38262898     5.99023699    -2.22752542     2.04436279    -0.14437161
Ti      4.11010398     2.33825398     1.35863698     2.58429542    -0.88243430     0.43160945
Ti      1.61477200     2.09080101     8.02381002    -0.40027540    -0.84478845     0.67975905
Ti      1.59873602     0.69646198     1.29260000    -0.84552019    -1.04397394    -0.55740586
Ti      3.30977700     5.34848998     7.93208598     1.13455857    -0.22016416    -1.22217871
Ti      0.71852100     0.03876499     6.01655102     0.68079032    -1.26322305    -0.44715897
Ti      3.98806798     5.26072302     3.54168602     1.81621303    -0.90251102    -1.02630660
O       2.86722898     3.42314698     4.69258499    -0.09411064    -0.76475281    -0.97460170
O       0.78543700     2.36702000     0.52039899    -0.91490683     1.24619360    -0.33447468
O       4.60924497     4.30136700     6.59274001     1.56110089    -0.75973016     0.44608142
O       3.43329602     0.84200001     0.30775203     2.01003083     1.10220508    -0.30628972
O       1.51679298     0.18677502     8.69762602    -1.16438903    -1.55309935    -0.90607123
O       4.32444099     0.61688002     5.08389300    -2.02279482     2.76974196    -1.30478854
O       0.91251198     5.07893101     4.30963000     1.35211486    -1.12080599    -0.64431612
O       4.85653300     3.80001897     2.80132302     0.94443442    -2.44511590    -1.42197870
O       4.95363501     1.21856799     7.14355902     0.74148663     1.41905175     2.64873320
O       2.59635198     1.81097298     2.38194402     0.37674594     1.31260084     2.01618708
O       3.21436100     2.95347402     7.62108201    -2.24481738     1.81327092     2.76858291
O       0.04447401     0.98794302     2.46480698    -1.49832841     0.44023216    -0.73517508
O       2.38593899     1.11515602     6.48269902    -0.78062038    -1.83207315    -0.26398374
O       2.56752103     4.68299397     2.20699198    -1.01718715    -0.50731998    -0.06802473
