# total energy = -19073.93544430 eV

CRYSTAL
PRIMVEC
        5.17600016     0.00000000     0.00000000
        0.00000000     5.50899976     0.00000000
        0.00000000     0.00000000     9.26300011
PRIMCOORD
22 1
Ti      1.85722799     3.25748598     3.19106302    -0.61599695     0.07126535     2.85680983
Ti      3.43309102     2.23526502     6.01249101     0.34364015     0.40056517    -1.06647496
Ti      4.53451001     2.19963499     1.31275699    -1.15466512    -0.81756869    -2.87892827
Ti      0.65244798     3.34910799     8.05873398     1.46674908     0.61746659     1.26088540
Ti      1.86044899     0.59543199     1.34020600    -0.42897689    -1.85113686    -3.19062476
Ti      3.28828600     4.99250297     8.00967797    -0.70228192     0.39365455     1.78750203
Ti      0.66839601     0.50066301     5.92693199    -0.07770314    -0.10880578    -1.51795776
Ti      4.45331702     4.85156598     3.47102699    -0.43594896     1.32973674     1.63879965
O       3.26742102     3.49532702     4.55561101     0.05420813    -0.17304173     0.20516202
O       0.79470802     2.01504601     0.12562202     0.70930001    -0.70377007    -0.05760944
O       4.40629201     3.91570802     9.13145601    -0.46983560    -0.34534942    -0.25838568
O       3.36892901     0.88760302     0.20258101     0.63984548     0.45436321    -1.42497815
O       1.73658003     4.78405598     9.01429601    -1.50245374     0.00005734     0.15122386
O       4.46563198     1.04996000     4.64944599     0.03623817    -1.70425482    -0.09522958
O       0.91427700     4.63693502     4.38208802    -0.52413629     0.60637048     1.22723402
O       0.02603298     3.34991499     2.55104499     0.61651271     0.10389292     0.17196676
O       0.05466099     2.40340300     6.50480699     0.52207195    -0.79262589     0.73517971
O       2.73887201     1.95012400     2.17785199     0.03203082     0.24912328     1.73335895
O       2.49832502     3.24224398     7.37164701     0.53956214    -0.07300959    -1.38198543
O       5.16836799     0.61437002     2.01187698     0.78641616    -1.28488049     1.41930295
O       2.57826301     0.55063899     6.45831602    -1.08608503     0.24041263     0.23772223
O       2.62828502     4.47895000     2.30496201     1.25150884     3.38753509    -1.55297362
