# total energy = -19072.17814404 eV

CRYSTAL
PRIMVEC
        5.93400000     0.00000000     0.00000000
        0.00000000     9.29699974     0.00000000
        0.00000000     0.00000000     4.64899994
PRIMCOORD
22 1
Ti      4.45604700     6.90422802     2.49640902    -2.60002492    -2.53948313     0.97331383
Ti      4.39339601     2.33188702     2.20768700     0.39980180    -0.02068068    -0.16743827
Ti      1.47261498     7.28440102     2.54972898     1.78199935    -0.66269052     1.87511806
Ti      1.59301101     2.41145300     1.98671698    -0.51874082     0.50563873     0.46546858
Ti      2.99447197     4.62288902     4.43229001     0.33563142     1.03662778     1.07063552
Ti      3.01384103     9.26667598     0.08285402     0.77074245    -0.32448362    -0.06338826
Ti      5.81221901     4.45488201     4.27076400    -0.03600908    -0.39028126     0.50680139
Ti      0.03670400     9.06102400     0.41089799    -1.03177637     0.30317226    -0.39597523
O       4.32427800     5.42024700     0.89612400     0.04279834     0.14242297     0.56511480
O       4.45740598     0.60121701     1.09811598     0.75736011     2.78134921     1.04189880
O       1.54151100     0.59083899     1.25536502    -0.88804625     1.50926306    -0.22845314
O       4.48260698     8.25467598     3.99559400     0.21814173     1.35884678    -0.27404807
O       4.22706401     4.18542300     3.25652102     1.44767946    -2.32160520    -1.20321939
O       1.43687398     8.58164000     3.86295699    -0.32557480    -0.21346926    -0.90815820
O       1.50553801     4.06420500     3.26422902    -0.25317637    -0.55165147     1.05450081
O       2.97223002     6.36811702     3.61339001    -2.05276078    -0.61858014    -0.62420803
O       2.93302698     1.66813799     3.12798398     0.70481189    -1.03962338     1.94725630
O       0.04766199     6.23905502     3.50879702     0.64940665    -1.16806057     0.12875010
O       2.99863999     7.96251299     1.72450198     0.03624460    -0.70015947    -1.34493016
O       3.10600402     2.84573200     0.94109401    -0.57876633     1.74616742    -0.79839982
O       5.81435901     7.77691899     1.74720802     1.49168107     1.46208484    -2.53870178
O       0.08643301     3.28804401     1.21320002    -0.35142288    -0.29480434    -1.08193835
