# total energy = -4985.37614856 eV

CRYSTAL
PRIMVEC
        4.09660210     0.00000000     0.00000000
        1.92780565     3.61465269     0.00000000
       -3.01224236    -1.80734944     5.41021638
PRIMCOORD
6 1
Ti      1.44575758     2.71112873     1.35255373     0.00066309    -0.00066309     0.00000000
Ti      1.56640765    -0.90382561     4.05766198    -0.00066309     0.00066309     0.00000000
O       0.48199386     0.90365857     0.88127993    -0.00046640    -0.00057336    -2.35503855
O       2.53017120     0.90364453     4.52893584     0.00046640     0.00057336     2.35503855
O      -0.48195493    -0.90363517     3.58638811    -0.00057336    -0.00046640    -2.35503855
O       3.49411991     2.71093818     1.82382760     0.00057336     0.00046640     2.35503855
