# total energy = -4987.88203881 eV

CRYSTAL
PRIMVEC
        3.58242605     0.00000000     0.00000000
        0.00000000     4.14883150     0.00000000
        0.00000000    -0.00006546     4.99332783
PRIMCOORD
6 1
Ti      1.79121308     2.07438286     2.49666391     0.00000000     0.00000000     0.00000000
Ti      0.00000000     0.00000000     0.00000000     0.00000000     0.00000000     0.00000000
O       1.79121308     0.80853333     0.97312603     0.00000000     0.25187153     0.33996167
O       1.79121308     3.34023233     4.02020174     0.00000000    -0.25187153    -0.33996167
O       0.00000000     1.26582307     3.46979105    -0.00000000    -0.25168307     0.33980021
O       0.00000000     2.88294264     1.52353678    -0.00000000     0.25168307    -0.33980021
