# total energy = -19518.73580092 eV

CRYSTAL
PRIMVEC
        7.60600008     0.00000000     0.00000000
        0.00000000     7.60600008     0.00000000
       -1.89786986    -1.89786986     4.85670466
PRIMCOORD
23 1
Ti      3.81291100     6.49907002     1.22965098    -0.30111254     1.10331374     0.31877706
Ti      3.74089601     2.83667899     1.22431602     0.60100690    -0.53497220     0.38432659
Ti      0.03750703     6.75106100     1.28748200     0.32860408    -0.72976162    -0.70787793
Ti     -0.05030301     2.95623802     1.05089299    -0.37545576    -0.37475025     0.97832877
Ti      5.66006023     2.90673322     3.66512582    -0.48832235     1.14444961    -0.68113202
Ti      5.75941025    -0.95347279     3.61477281    -0.77727383    -1.14799902     0.27846729
Ti      2.03113723     2.85474923     3.62796181    -0.06423209    -0.58823880     0.43161819
Ti      1.90333023    -1.03523575     3.71695884     0.48492258     0.32805154    -0.23889748
O       3.60600201     4.69330901     0.72966600     0.05765547     0.66210199     1.14859088
O       3.72850998     0.87770101     0.77735900     0.23679817     0.58677507     0.21374694
O       0.00077900     4.84762901     0.71114702     0.38561702    -0.38251499     0.80159981
O      -0.06408702     0.95723301     0.85271400     0.25879911     0.31577709    -1.03426880
O       5.76939524     4.74953124     3.84741579     0.50955453     0.70645662     0.93297758
O       5.75667922     1.00939724     4.04999082     0.43198303    -0.96815285    -1.05418817
O       1.86217024     4.67032420     3.96141984    -0.29375250     0.54709907     0.98124723
O       1.80419120     0.97557123     4.14356783    -0.06678726    -1.02726305    -0.75049655
O       3.81631023     3.03586723     3.39275183    -0.04557925    -0.99136452    -1.30376987
O       3.83207823    -1.07386379     3.32218181     0.08576329     0.36868733    -1.04988543
O       0.05465020     6.33711924     3.19881583    -0.81375420     1.60239642    -0.31022042
O       5.70636398     6.62017102     1.47452801    -0.41425347     0.09482772     1.26662822
O       5.73068899     2.89212502     1.64945401     0.01080172    -0.00866231    -0.43367996
O       1.91409502     6.77259698     1.61065500     0.26347441    -0.38477576     0.45925242
O       1.75363297     2.89738102     1.76153698    -0.01445706    -0.32148057    -0.63114461
