# total energy = -19939.38476185 eV

CRYSTAL
PRIMVEC
        5.95211538     0.00000000     0.00000000
        0.00003262     6.33485071     0.00000000
        0.00000000     0.00000000    10.65297774
PRIMCOORD
24 1
Ti      2.15737488     3.75402667     3.95217884     0.04041930    -0.78336426     0.60457585
Ti      3.79477312     2.58082410     6.70079921    -0.04041930     0.78336426    -0.60457585
Ti      5.13332837     2.58082628     1.37426762     0.04122560     0.78340488    -0.60462187
Ti      0.81881964     3.75402474     9.27871055    -0.04122560    -0.78340488     0.60462187
Ti      2.15735869     0.58660144     1.37431034     0.04041930    -0.78336426    -0.60457585
Ti      3.79478931     5.74824952     9.27866783    -0.04041930     0.78336426     0.60457585
Ti      0.81880345     0.58659908     6.70075649    -0.04122560    -0.78340488    -0.60462187
Ti      5.13334456     5.74825188     3.95222156     0.04122560     0.78340488     0.60462187
O       1.88389358     2.23060869     5.43613311     1.28550012     1.17808299     0.03650839
O       4.06825442     4.10424215     5.21684493    -1.28550012    -1.17808299    -0.03650839
O       1.09222188     2.23063420     0.10967838    -1.28546053     1.17833702     0.03577769
O       4.85992618     4.10421663    10.54329936     1.28546053    -1.17833702    -0.03577769
O       4.06823823     0.93681673     0.10964381    -1.28550012    -1.17808299     0.03650839
O       1.88390977     5.39803404    10.54333392     1.28550012     1.17808299    -0.03650839
O       4.85990999     0.93679122     5.43616768     1.28546053    -1.17833702     0.03577769
O       1.09223795     5.39805962     5.21681037    -1.28546053     1.17833702    -0.03577769
O       0.21627394     3.85321532     2.87763512     0.45266216    -0.26455093     0.30705000
O       5.73587406     2.48163545     7.77534292    -0.45266216     0.26455093    -0.30705000
O       3.19233640     2.48157641     2.44888777     0.45262051     0.26482372    -0.30719860
O       2.75981160     3.85327436     8.20409009    -0.45262051    -0.26482372     0.30719860
O       0.21625775     0.68578990     2.44885375     0.45266216    -0.26455093    -0.30705000
O       5.73589025     5.64906087     8.20412411    -0.45266216     0.26455093     0.30705000
O       2.75979541     0.68584894     7.77537688    -0.45262051    -0.26482372    -0.30719860
O       3.19235259     5.64900183     2.87760110     0.45262051     0.26482372     0.30719860
