# total energy = -19910.39411868 eV

CRYSTAL
PRIMVEC
        6.55397791     0.00000000     0.00000000
        1.38130435     6.83728045     0.00000000
        0.00000000     0.00000000    11.78985664
PRIMCOORD
24 1
Ti      3.19406134     4.05176606     4.37395288    -0.23234708    -1.66614694     0.68255050
Ti      4.74122060     2.78551455     7.41590424     0.23234708     1.66614694    -0.68255050
Ti      6.21512749     2.78551700     1.52092857     0.22311013    -0.14317733    -0.37081621
Ti      1.72015448     4.05176388    10.26892867    -0.22311013     0.14317733     0.37081621
Ti      2.50340932     0.63312609     1.52097585    -0.23234708    -1.66614694    -0.68255050
Ti      5.43187264     6.20415472    10.26888140     0.23234708     1.66614694     0.68255050
Ti      1.02950235     0.63312345     7.41585696    -0.22311013     0.14317733    -0.37081621
Ti      6.90577961     6.20415736     4.37400015     0.22311013    -0.14317733     0.37081621
O       2.56075602     2.40752271     6.01627378     1.74035544     1.88231741    -0.49134725
O       5.37452593     4.42975791     5.77358333    -1.74035544    -1.88231741     0.49134725
O       1.68903815     2.40755024     0.12138320    -0.92900882     0.42387660     0.71628749
O       6.24624387     4.42973043    11.66847358     0.92900882    -0.42387660    -0.71628749
O       4.68387389     1.01111773     0.12134493    -1.74035544    -1.88231741    -0.49134725
O       3.25140805     5.82616288    11.66851185     1.74035544     1.88231741     0.49134725
O       5.55559183     1.01109026     6.01631205     0.92900882    -0.42387660     0.71628749
O       2.37969005     5.82619043     5.77354506    -0.92900882     0.42387660    -0.71628749
O       1.07830872     4.15882147     3.18473453     0.50152240     1.21328449     1.43601153
O       6.85697323     2.67845914     8.60512258    -0.50152240    -1.21328449    -1.43601153
O       4.05622684     2.67839528     2.71023153     0.57664415     1.44472191     0.65469490
O       3.87905510     4.15888533     9.07962538    -0.57664415    -1.44472191    -0.65469490
O       0.38765668     0.74018130     2.71019386     0.50152240     1.21328449    -1.43601153
O       7.54762527     6.09709938     9.07966305    -0.50152240    -1.21328449     1.43601153
O       3.18840306     0.74024510     8.60516019    -0.57664415    -1.44472191     0.65469490
O       4.74687889     6.09703552     3.18469686     0.57664415     1.44472191    -0.65469490
