# total energy = -19074.72394824 eV

CRYSTAL
PRIMVEC
        7.60600008     0.00000000     0.00000000
        0.00000000     7.60600008     0.00000000
       -1.89786986    -1.89786986     4.85670466
PRIMCOORD
22 1
Ti      3.84083701     6.61474701     1.26394298     1.28876131    -0.61279747    -2.20907620
Ti      3.80342698     2.75013999     1.17395798     1.85566791     1.14869450     0.61810397
Ti      0.42016801     6.72083000     1.00585699    -1.25127513     1.27969637     0.35163063
Ti      0.04759298     2.86536500     1.17876201    -2.32009750    -0.54873532    -0.31156408
Ti      5.67014524     2.99207824     3.67755180    -0.43687327    -1.00933629    -2.10202802
Ti      6.00416922    -0.83819279     3.57425280    -0.94170442    -0.28228718     0.24320614
Ti      1.89873824     2.74209321     3.58556582    -0.54741223     0.11595757     1.43528133
Ti      1.19600620    -1.06935678     3.97633279     2.76030138    -0.09382113    -1.82144060
O       3.93878899     4.58665202     0.69114899    -0.83832084     2.41658281     0.04222807
O       4.17348899     0.84613500     0.79190502    -1.80727408    -0.21978029     0.68875637
O       0.15087399     4.86591600     0.77748002     0.31591850    -0.43673623    -0.39223890
O      -0.17688803     1.02266901     0.69857202     1.06110804    -0.17802891     0.90520785
O       5.44644921     4.84868122     3.94837382     0.84719475    -0.07493303    -0.08765280
O       5.34175022     0.92946121     3.95021482     1.56599524     0.76451807     0.52757642
O       1.90375421     4.77762124     3.95035283    -0.95014253    -0.43656859     1.39015897
O       1.78877024     0.80369721     4.12080781    -0.92381648    -0.34820386    -1.17634621
O       3.66002222     2.76871422     3.10518183     1.47782642    -0.00157506     0.98420606
O      -0.03718079     2.78281520     3.20023583    -0.12573033     0.16284036     0.11026720
O       5.70269398     6.57326200     1.72781600    -0.72752811    -0.03412292     0.75223539
O       5.70038502     3.09469698     1.66579902    -0.00350493    -0.71859815     0.36532510
O       2.04356702     6.72063701     1.99458600    -0.09806808    -0.27552903     0.39994167
O       1.87703700     2.90618102     1.58936202    -0.20102615    -0.61723648    -0.71377887
