# total energy = -39025.90678095 eV

CRYSTAL
PRIMVEC
        5.93200024     0.00000000     0.00000000
        0.00000000     9.29399984     0.00000000
        0.00000000     0.00000000     9.29399984
PRIMCOORD
46 1
Ti      4.41189499     6.97923302     6.95290201     1.02682596    -0.83087261    -0.42768774
Ti      4.31745098     6.91044400     1.87711903     2.98105252     2.67130364     3.95930622
Ti      4.29415400     2.53898599     6.77624598    -0.08899414    -0.45677027    -1.73900509
Ti      4.45103003     1.82283200     2.80334601     0.26941854    -0.78663470     0.17742727
Ti      1.33401600     7.29245902     6.51836700     0.46117586    -1.55194724     1.51453228
Ti      1.45982001     6.94378497     2.27629198    -2.97547477    -1.12236022     1.36395505
Ti      1.44179300     2.13981801     7.90154399     0.21680167     2.47549941    -3.25617815
Ti      1.64005598     2.23533900     4.25908701    -1.08923283     0.66853592     0.63637449
Ti      2.94697202     4.87061800     4.39191997     1.89781859     1.37435902     1.91032907
Ti      3.01201600     4.81451098     9.10540302    -0.62495545     2.08719352    -2.10954902
Ti      3.12696600     9.16043000     4.78495098     1.57182573     1.14362737     0.30762464
Ti      2.93888503     9.19306399     0.07694100    -0.77785361     0.87743247    -0.31759872
Ti      0.02334899     4.59657298     4.38892298    -1.37611200     1.61082372     0.67261961
Ti      0.04582601     4.88723401     9.12887299    -1.44090562     4.59513050    -1.88752312
Ti      0.15331101     8.95532000     4.40690400    -1.41891343     1.86849798    -2.08973840
Ti      0.03674898     0.12996101     9.16634398    -4.29884211    -4.15319421     0.18336086
O       4.50039401     5.87914401     5.10853599    -0.05170619    -1.69202768     1.86646552
O       4.54042902     5.62962101     0.70565199    -1.40803097    -0.68075149     0.11952806
O       4.48502300     1.04480799     5.42372899    -1.54841789     0.85876086    -1.17608653
O       4.51252201     1.18653499     1.02599198    -0.53171847     0.02206059     0.57230027
O       1.50593701     5.91073901     5.05186798     0.11530579    -0.40922362     2.25791535
O       1.50189002     5.73697498     0.78002499     0.36817003    -0.28498041     0.52224550
O       1.43689298     0.78315301     5.40243802     0.38136287    -0.13874243     1.77440482
O       1.34593101     1.19455001     0.12374302     2.22303987     2.08125633     3.60601929
O       4.20552602     8.54019298     8.39912100     1.89409049    -1.50439544    -0.81441625
O       4.17601899     8.36992502     3.60685298     3.33291661    -0.68227564    -1.23401068
O       4.53143099     4.06850398     8.13160697    -0.38453870    -1.46355885    -0.75985331
O       4.47845099     3.66119800     3.35937101     0.17242467    -0.88314727    -0.62170506
O       1.36573600     8.22706002     8.44204500     1.15581492     2.08120362    -1.15665335
O       1.69697698     8.18702702     3.90125201    -1.39449925    -1.94079228    -1.35956643
O       1.36259300     3.89840901     8.78822699     3.78324292    -6.53308685    -2.12596012
O       1.63834499     4.06846901     3.47717301    -2.14379227    -2.68107872    -2.50850596
O       2.90135800     6.14519602     7.48917299    -0.23714862    -1.97927966     2.00550749
O       3.06766899     6.00678902     2.84134999    -0.20441358    -0.82815932     0.81693594
O       3.22427000     1.63622299     8.04032898    -0.28183183    -0.21941263    -0.76784662
O       2.72105900     1.02531802     3.31100199     1.70437643     3.29453105    -2.33604709
O       0.32445101     6.21625902     7.72706002    -2.46939921    -0.66328547    -0.79021419
O       5.92405602     6.02482100     3.12372198    -0.42864676     1.61903043    -2.85190339
O       5.67430299     1.56382699     7.41422403     1.89833127    -1.30131601     2.71051786
O       3.06295698     8.02288698     6.19690902    -1.29834741     0.15523761     0.39645834
O       2.79332302     7.75179101     1.37933903     1.43315709     3.93346225    -2.74244301
O       2.74466999     3.19323799     5.46985001     2.16224637     0.18810172     1.63060709
O       5.56527803     8.27317300     5.89543298     1.07600527    -3.35772468     3.65705082
O       0.07811302     8.05976402     1.25017300    -0.67993928    -0.26708192     1.35328240
O       0.25502798     3.07465101     5.46504000    -1.16133893     1.56824675     0.02976799
O       0.25918599     1.21989501     3.24616698    -1.81035015     1.23780511    -0.97204422
