# total energy = -19516.06049687 eV

CRYSTAL
PRIMVEC
        5.17600016     0.00000000     0.00000000
        0.00000000     5.50899976     0.00000000
        0.00000000     0.00000000     9.26300011
PRIMCOORD
23 1
Ti      2.04529298     3.21906702     3.37515097    -2.16983087    -1.00844103     4.05313069
Ti      3.36952201     2.23816597     6.05384701    -2.71718242    -0.22142914    -3.37562907
Ti      4.38602600     2.21779598     1.42363000    -1.09475531    -0.41364977    -2.44565017
Ti      0.66855799     3.31835898     7.80849801     1.58638667     1.68423415     1.97403306
Ti      1.96490101     0.27028802     1.41633201    -0.25566674     0.06594034    -3.34503139
Ti      3.44435498     4.97247801     7.95188198    -0.69606910     1.11102680     2.86940490
Ti      0.68684498     0.57510200     5.92569398     2.20096437    -1.30145999    -4.71331567
Ti      4.56174301     4.88087901     3.39744198     1.74499859     0.43368844     2.65207307
O       1.56686600     2.00797699     4.82056302     0.81829399    -0.20742460     0.08236583
O       3.56231202     3.40698199     4.47377401     1.29722616     0.82495084     0.19209516
O       4.40318902     3.64591298     8.98559200    -0.11596657    -1.66156729     1.65713702
O       3.56055500     0.82569199     0.15036699    -0.60877421     0.09493185    -0.29462333
O       1.66430500     4.63807497     9.18961000     0.18740855    -0.12105324    -0.50114830
O       4.26431899     0.76003897     4.81611698    -0.17501609    -0.90391279    -0.96883497
O       1.18971201     4.73971400     4.27711502    -2.11704044     0.79501445     0.37985955
O       0.21777501     3.24009901     2.52161601     0.19445595     0.93670234    -0.36816565
O       5.08401301     1.95918098     6.74403803    -0.87001587     1.70737743     2.76331703
O       2.64961198     1.85666400     2.23559999     0.99619229     0.26366287    -0.60117016
O       2.50173397     3.73348801     6.98259600    -1.00516570    -2.26187228    -0.53157166
O       0.19457101     0.69549798     2.02825702    -0.00955268    -0.78257956     0.34013959
O       5.00970399     4.64435398     6.84396399     0.00800025     0.51262005    -0.21631367
O       2.34726502     0.79172701     6.88656398     0.70081768     0.54900863     0.55630157
O       2.87110800     4.57809898     2.35331701     2.10029176    -0.09576900    -0.15840367
