# total energy = -19516.29839699 eV

CRYSTAL
PRIMVEC
        5.17600016     0.00000000     0.00000000
        0.00000000     5.50899976     0.00000000
        0.00000000     0.00000000     9.26300011
PRIMCOORD
23 1
Ti      1.86805602     3.24042202     3.25247901     0.38962743    -0.46120183     4.13565259
Ti      3.32978498     2.18764600     5.90112402     0.41867345     0.62846706    -3.44017562
Ti      4.49641301     2.17939301     1.41293099    -0.73427211    -1.00445556    -2.34046039
Ti      0.75672601     3.37923702     7.91714900     0.95182583    -0.75087759     1.47645654
Ti      1.85353100     0.57314198     1.36305100    -0.59930020    -0.65539424    -3.07902702
Ti      3.33930202     5.10270498     7.88833700    -0.67703573    -0.17793043     3.03573862
Ti      0.76313101     0.61876802     5.83108699    -0.79522142    -0.40832759    -2.94463823
Ti      4.42658003     4.85641398     3.39554298     0.32040251     1.34890843     3.58296651
O       1.69369402     1.88191099     4.79682900    -0.44608965    -0.07621910    -0.52297723
O       3.37006500     3.52385200     4.49702500     0.60238398     0.71043438    -0.00110506
O       0.76843300     2.19042900     0.17806100     0.11774706     0.04588932    -0.25297556
O       3.42910001     0.85047701     0.07713600     1.19467535     0.87709823     0.46345283
O       1.80881600     4.80441200     8.97999500    -1.58013040    -1.22746747     0.90492838
O       4.32050899     0.81894402     4.83660799    -0.57116795    -0.44969871    -1.14056390
O       0.83116802     4.70482799     4.49967798     0.54163625    -0.45323141    -0.01932365
O       0.05703001     3.27966300     2.71243701    -0.02163558     0.13489041    -1.05991967
O       5.02770803     2.15324700     6.67665900     0.92068436     0.70525746     1.87925214
O       2.76915200     1.84333402     2.32434000    -0.02613245     1.16628291    -0.21170343
O       2.41304598     3.21596901     7.13082902     0.53864091     1.49680194     0.91638881
O       5.16398000     0.69766797     2.17085198     1.42470201    -1.80412525     0.18160711
O       5.07298300     4.85735698     7.09903298    -0.38357737    -0.18782970     0.72272914
O       2.61815202     0.60606602     6.68476298    -1.77957583    -0.17121008    -0.46454606
O       2.62197702     4.76219397     2.55099498     0.19313980     0.71393905    -1.82175685
