# total energy = -19515.49463942 eV

CRYSTAL
PRIMVEC
        5.93400000     0.00000000     0.00000000
        0.00000000     9.29699974     0.00000000
        0.00000000     0.00000000     4.64899994
PRIMCOORD
23 1
Ti      4.53758199     6.95457199     2.22110900    -1.50612399    -0.32121164    -0.41448230
Ti      4.52727500     2.41428003     2.40772199     0.03334722    -0.32306823    -0.57994364
Ti      1.38902900     6.94232900     2.24753199     0.93976786     1.32903843     0.13609343
Ti      1.53523401     2.32313798     2.21578601     1.41703447    -1.00068015    -0.09711523
Ti      2.83137198     4.60546898     4.61075599     2.17561251    -0.40340109     1.26904814
Ti      2.95030001     0.18835302     0.03278602    -0.30822782     0.14405845     0.79156814
Ti      0.03158902     4.52664602     0.18429302    -2.33834026     0.56094833    -1.69185336
Ti      5.85441201     9.16697100     4.45572600     0.58541675     1.44982890     0.42153663
O       4.42697400     5.57582998     0.94800501     0.41587918     0.01927197     0.07960704
O       4.41945402     1.12333900     0.91539801     0.17311038    -0.82857147    -0.34803648
O       1.32124399     5.54570900     0.97363402     1.97201192     0.65553153    -0.59320926
O       1.31985601     0.84664000     1.01722002     1.18913000     0.08299550    -1.38046179
O       4.16296398     8.39812800     3.83684500     2.09340325    -0.95937433    -1.02642076
O       4.42055000     3.69098602     3.98551100     0.33402319    -0.01547342    -1.34337028
O       1.49044498     8.44478698     3.74969099    -0.49010875    -0.65099405    -0.67958601
O       1.62654402     3.60734601     3.72629702    -0.61802478     1.11190534     1.65547455
O       3.26752997     1.41077401     3.24565500    -1.80729387     0.28825368    -0.04039590
O       0.11083999     5.95223402     3.25501499    -0.55915138     1.08736570    -0.18600550
O       0.23921198     1.43457598     3.13309699    -2.41084797    -0.66131523     1.64125428
O       2.95873902     7.68347698     1.41481697    -0.20388907     0.23198147     1.02569802
O       3.02042701     3.43760998     1.46648499     0.11466790    -0.93301872     0.77688765
O       5.78066402     7.88095201     1.20776801     0.66248971    -0.61215341     1.80692595
O       0.22963499     3.47707702     1.71946802    -1.86388670    -0.25191781    -1.22321358
