# total energy = -19960.72621640 eV

CRYSTAL
PRIMVEC
        7.60600008     0.00000000     0.00000000
        0.00000000     7.60600008     0.00000000
       -1.89786986    -1.89786986     4.85670466
PRIMCOORD
24 1
Ti      3.79003599     6.50296900     1.30204300    -1.38305115     0.81726735    -0.05373299
Ti      3.79494999     2.87847299     1.25319598    -1.08315268    -0.06546982    -2.18605556
Ti     -0.00842498     6.56981599     1.22970903     1.29068989     0.40834893     0.11902438
Ti     -0.03411902     2.88071299     1.09515899     0.76128593    -0.50111950     0.78520311
Ti      5.75271023     2.81747721     3.54190579    -0.11241844     1.11643948     0.56431904
Ti      5.79360325    -0.97967378     3.69138883     0.39777115    -1.02804930     0.15718959
Ti      1.82747823     2.98357722     3.53998381     0.03117001    -1.31804901     0.38824829
Ti      1.97329122    -0.95098078     3.74196283    -0.44516225     1.17979817    -0.53750500
O       3.55889100     4.79722302     0.73158099     0.56516159    -1.63588582     0.49358231
O       3.55571202     1.00429799     0.73694399     1.22948708     0.70227806     1.46106128
O       0.04131800     4.70516401     0.72040201    -0.66595556     0.78766880     0.10642700
O       0.02486101     0.92124901     0.82444498    -0.64684454     0.20875771    -0.47143277
O       5.90418124     4.64486421     4.16215783    -0.74884641     1.01440445    -0.42657497
O       5.78358222     0.94733920     3.99041584    -0.45663298    -0.54456165    -0.39118038
O       1.85850421     4.70530821     4.24926982     0.52868251     0.91748848    -1.81134799
O       1.86269021     1.00463221     3.95601683     0.72657268     0.19369259     0.49990003
O       3.76864421     2.99621524     3.10277381     0.29605107    -0.44849440     0.92459835
O       3.86632621    -1.19913078     3.29964283    -0.40576342     0.41417968     0.49890296
O      -0.04099578     2.89147424     3.15403580     0.01181859    -0.33090804    -0.35061093
O       0.10526225    -1.08069377     3.40436182    -2.17432644     0.08108414    -1.51134514
O       5.62333200     6.53010600     1.66013201     2.35044965     0.45299075     0.33177013
O       5.69500800     3.05896101     1.55374997    -0.39942025    -0.65463396     0.00718726
O       1.87969099     6.79080200     1.66994200    -0.33443045    -0.80450516     0.59369159
O       1.79727602     3.12641301     1.54695603     0.66686470    -0.96272165     0.80867986
