# total energy = -19960.59150734 eV

CRYSTAL
PRIMVEC
        5.93400000     0.00000000     0.00000000
        0.00000000     9.29699974     0.00000000
        0.00000000     0.00000000     4.64899994
PRIMCOORD
24 1
Ti      4.51857400     6.94290897     2.18096498    -1.57845455     1.15039811     0.55420895
Ti      4.39522601     2.29993900     2.30315100     0.77760139     0.18818322     0.79194660
Ti      1.46473299     6.91432203     2.40602798     1.35792684     1.10339627     0.04986425
Ti      1.46213600     2.28309000     2.36639800    -0.54574179    -0.16328594     0.44621409
Ti      2.97835302     4.72034299     0.00669700    -0.19829692    -0.83881860    -0.80332708
Ti      2.93549300     0.07359998     0.05548101     0.19167581    -1.44966126    -0.69475527
Ti      0.03303802     4.61196902     4.60141802     0.04200104    -1.10183536    -0.22054957
Ti      5.91333299     9.28959100     0.06748301    -0.38254713    -0.26035206    -1.66026888
O       4.44172302     5.49317900     0.83953198     0.62705424     1.20809318     1.26274714
O       4.41956202     0.89752198     0.93996501     0.49381783    -0.06193944     0.55365333
O       1.47122499     5.60665000     0.83191500    -0.20297864    -0.51103163     0.03314642
O       1.48132201     0.84820800     0.94916698    -0.02895063     0.53199255     0.43174777
O       4.48209897     8.44832400     3.72918400     0.19008250    -0.35888243    -0.02145869
O       4.42374999     3.89672199     3.68656200     0.01191604    -1.23536025    -0.12042512
O       1.48687800     8.42550900     3.66087499    -0.32583757    -0.02788594     0.60813657
O       1.54763300     3.74536502     3.65477998    -0.24064120     0.91233213     1.08845996
O       3.01283098     6.16181298     3.17028900     0.09772407    -0.88571374     0.69428476
O       2.95912299     1.48144002     3.34478102     0.50808977    -0.06391688    -0.38636444
O       5.81713899     5.93670002     3.19116298     0.77996140     1.32175912    -0.73729727
O       5.88702002     1.52461702     3.36794702     0.54832035    -0.41567837    -0.25706002
O       2.87512298     7.83634200     1.34735698     1.04304038    -0.14765954     0.25446860
O       3.02912599     3.10052798     1.38006802    -0.67931296     1.23613724    -0.51250975
O       0.12118201     7.92471798     1.44347298    -1.38170672    -0.78947140     0.06061507
O       0.10823601     3.20677402     1.50696298    -1.10474327     0.65920076    -1.41547766
