# total energy = -4989.89975186 eV

CRYSTAL
PRIMVEC
        3.72656282     0.00000000     0.00000000
        0.73792548     3.65277106     0.00000000
       -2.23227810    -1.82641331     4.78012239
PRIMCOORD
6 1
Ti      0.55331565     2.73971798     1.19503073     0.00134237    -0.00134237     0.00000000
Ti      1.67889455    -0.91336023     3.58509182    -0.00134237     0.00134237     0.00000000
O       0.18452042     0.91318743     0.77864293    -0.00018718     0.00016069    -0.07826878
O       2.04768967     0.91317024     4.00147967     0.00018718    -0.00016069     0.07826878
O      -0.18449596    -0.91316741     3.16870403     0.00016069    -0.00018718    -0.07826878
O       2.41670594     2.73952499     1.61141852    -0.00016069     0.00018718     0.07826878
