# total energy = -4978.90356738 eV

CRYSTAL
PRIMVEC
        2.76839397     0.00000000     0.00000000
        1.66833018     4.00399216     0.00000000
       -0.00001064    -0.00005763     4.43064972
PRIMCOORD
6 1
Ti      2.21835668     2.00196713     2.21532481     0.00000000     0.00000000     0.00000000
Ti      0.00000000     0.00000000     0.00000000     0.00000000     0.00000000     0.00000000
O       1.70932782     0.78030777     0.86346835    -9.35112881     3.94126375     5.27624837
O       2.72738555     3.22362649     3.56718122     9.35112881    -3.94126375    -5.27624837
O       0.50902430     1.22163610     3.07879413     9.34790001    -3.93832215     5.27186927
O       1.15929523     2.78229834     1.35185549    -9.34790001     3.93832215    -5.27186927
