# total energy = -19518.75282546 eV

CRYSTAL
PRIMVEC
        7.60600008     0.00000000     0.00000000
        0.00000000     7.60600008     0.00000000
       -1.89786986    -1.89786986     4.85670466
PRIMCOORD
23 1
Ti      3.78556201     6.68047601     1.24163499     0.91709175     0.19806861    -0.11791932
Ti      3.83309901     2.92314999     1.15478001     0.71482582    -0.91363619     1.96912791
Ti      0.02940199     6.66746798     1.20399397    -0.91602063    -1.30390023     0.60763983
Ti      0.01464302     2.79083002     1.03211302    -1.78165740     1.29737579    -0.59793417
Ti      5.68697022     2.88242425     3.64114483    -1.25334332    -1.71300969     0.45091073
Ti      5.69916320    -1.06188279     3.62597581    -0.00354761     1.18938659    -1.07513393
Ti      2.05670120     2.89809721     3.65901382     0.90032430    -0.01779230     0.17230177
Ti      1.86812222    -0.89908876     3.69172782     0.20536077    -0.16276632    -0.02898946
O       3.84821803     4.68520498     0.98513701    -0.38828249     2.13699581    -0.69438400
O       3.63714399     1.07994599     0.82350400     0.33528535    -1.89164563    -0.83624416
O      -0.26647001     4.72615801     0.77623000     1.54128590     0.35438788    -0.22465331
O      -0.16609001     0.91922200     0.78687900     0.52182949    -0.93309302    -0.41519321
O       5.65571521     4.69373024     4.01644781     0.65282750     0.91552878     0.28531440
O       5.84160825     0.93887220     4.00164784     0.47820660    -0.19724354     0.04810870
O       1.93986421     4.76310723     4.09231580    -0.22787824     0.18558435     0.10476092
O       1.72666425     1.09846423     4.06640680    -0.13755330    -1.13879318    -0.11766272
O       3.86582624     2.62244021     3.27185383    -1.00190117     0.83722015    -0.51732492
O       3.84593923    -0.86226178     3.19223980    -0.96209070     0.14132511     0.78003828
O       0.00776023    -0.93618076     3.20041982     0.34712194    -0.24260476    -0.07351635
O       5.68871698     6.51302702     1.61235403     0.29344577     0.77608006     0.30019749
O       5.82555798     2.82522400     1.72654402    -0.16218011    -0.12459853    -0.56023973
O       1.95649900     6.55224398     1.59860399    -1.50583140     0.25191267     0.20793702
O       1.62900501     2.84047700     1.83159798     1.43268092     0.35521783     0.33285745
