# total energy = -4902.23919254 eV

CRYSTAL
PRIMVEC
        5.43184664     0.00000000     0.00000000
       -0.00000705     2.06035534     0.00000000
       -2.71595589    -1.03027546     5.99480625
PRIMCOORD
6 1
Ti     -0.00023209     1.54532481     1.49870130    -0.04950918    -0.03783045    89.69818793
Ti      2.71611585    -0.51524520     4.49610448     0.04950918     0.03783045   -89.69818793
O       0.00005767     0.51507244     0.97650487     0.04782485     0.03806340   -83.75848260
O       2.71582594     0.51500712     5.01830096    -0.04782485    -0.03806340    83.75848260
O      -0.00002355    -0.51512919     3.97390800    -0.00101404    -0.00001620    -0.43881445
O       2.71590705     1.54520869     2.02089784     0.00101404     0.00001620     0.43881445
