# total energy = -19897.60670568 eV

CRYSTAL
PRIMVEC
        8.69526446     0.00000000     0.00000000
        0.00002848     3.96616740     0.00000000
        0.00000000     0.00000000    13.23351290
PRIMCOORD
24 1
Ti      3.15163188     2.35034715     4.90953890     0.21159621    -0.29669102     2.79181001
Ti      5.54366067     1.61582032     8.32397419    -0.21159621     0.29669102    -2.79181001
Ti      7.49911529     1.61582167     1.70716471     0.20200265     0.29589140    -2.79306162
Ti      1.19617727     2.35034592    11.52634850    -0.20200265    -0.29589140     2.79306162
Ti      3.15161784     0.36726351     1.70721780     0.21159621    -0.29669102    -2.79181001
Ti      5.54367472     3.59890402    11.52629542    -0.21159621     0.29669102     2.79181001
Ti      1.19616322     0.36726203     8.32392110    -0.20200265    -0.29589140    -2.79306162
Ti      7.49912934     3.59890550     4.90959199     0.20200265     0.29589140     2.79306162
O       2.75211603     1.39655495     6.75296039     1.38936707     0.99439586    -2.31885669
O       5.94317653     2.56961245     6.48055270    -1.38936707    -0.99439586     2.31885669
O       1.59558689     1.39657095     0.13624642    -1.38674069     0.99444625    -2.31782002
O       7.09970573     2.56959651    13.09726629     1.38674069    -0.99444625     2.31782002
O       5.94316254     0.58652875     0.13620349    -1.38936707    -0.99439586    -2.31885669
O       2.75213001     3.37963872    13.09730922     1.38936707     0.99439586     2.31885669
O       7.09969174     0.58651275     6.75300331     1.38674069    -0.99444625    -2.31782002
O       1.59560075     3.37965472     6.48050978    -1.38674069     0.99444625     2.31782002
O       0.31593626     2.41244783     3.57470201    -2.05415329     0.60668056     0.04314030
O       8.37935630     1.55371957     9.65881108     2.05415329    -0.60668056    -0.04314030
O       4.66357955     1.55368262     3.04209660    -2.05812565    -0.60712433    -0.04242425
O       4.03171301     2.41248484    10.19141630     2.05812565     0.60712433     0.04242425
O       0.31592227     0.42936413     3.04205437    -2.05415329     0.60668056    -0.04314030
O       8.37937028     3.53680334    10.19145853     2.05415329    -0.60668056     0.04314030
O       4.03169902     0.42940108     9.65885324     2.05812565     0.60712433    -0.04242425
O       4.66359353     3.53676639     3.57465978    -2.05812565    -0.60712433     0.04242425
