# total energy = -19074.16614646 eV

CRYSTAL
PRIMVEC
        5.17600016     0.00000000     0.00000000
        0.00000000     5.50899976     0.00000000
        0.00000000     0.00000000     9.26300011
PRIMCOORD
22 1
Ti      1.82428798     3.35299401     3.26268202     0.69020082     1.44283190     0.51580462
Ti      3.60643800     2.24877799     5.83657498    -1.20759361     0.32410516    -0.15346535
Ti      4.32651203     2.27508302     1.25613302     1.55306438    -0.12156823    -2.74085638
Ti      0.70552800     3.26589900     8.16727400     0.80945505     0.39927010     1.54604424
Ti      1.87306500     0.60783199     1.38617801    -1.07661951    -1.08637711    -2.45631126
Ti      3.14424602     5.01190399     8.00329398    -0.25215615    -0.27812122     1.49460776
Ti      0.68869498     0.19911601     5.98760598     0.40149025     0.80602289    -1.00453681
Ti      4.53070899     4.92538801     3.33866801    -1.35947773     0.40673350     0.77611426
O       3.48933203     3.55245298     4.45034802     0.13730287    -0.64070140     0.89690087
O       0.90481399     2.02333102     0.35528802    -0.88118834     0.28920062    -1.34982040
O       4.19488897     3.71763798     8.99607400     0.83378053    -0.32565065     0.79530190
O       3.23627401     0.93331801     0.11057698     1.13819205     0.24697229    -0.45544898
O       1.55442198     4.63618899     9.21753600     0.31809237     0.90843022    -0.88826608
O       4.68435100     0.88041701     4.72176102    -1.99743577     0.97117570     0.34447781
O       1.08236798     4.79914298     4.24508398     0.03997578    -0.86009320     1.99893703
O       0.13142800     3.52334601     2.34880900     0.14139041    -0.71143325     0.32352357
O       5.02794197     2.05617398     6.91814602     1.33881248    -1.10430593    -0.09724893
O       2.75605698     2.07892199     2.24107603    -0.31973711    -0.78116622     1.30568175
O       2.58773798     3.36878301     7.24712901    -1.68310595    -0.46271801    -1.74328778
O       5.15206399     0.69002099     2.07775600     0.31959287    -0.01582232     0.45706981
O       2.42093300     0.70585800     6.45872698     0.34694428    -0.10121049     0.29497943
O       2.74437402     4.69190400     2.30604201     0.70902027     0.69442591     0.13979839
