# total energy = -19075.60612375 eV

CRYSTAL
PRIMVEC
        7.60600008     0.00000000     0.00000000
        0.00000000     7.60600008     0.00000000
       -1.89786986    -1.89786986     4.85670466
PRIMCOORD
22 1
Ti      3.85331199     6.64326998     1.27899702     0.78476165     0.32425068    -0.68057640
Ti      3.66411297     2.87984202     1.16762098     0.74870706    -0.44245308     1.35895322
Ti      0.14739603     6.64300200     1.06396801    -1.22463463    -0.72898746    -0.09848126
Ti     -0.04074802     2.78826398     1.16746900    -0.59764724     0.76651427    -0.27707812
Ti      5.71537423     2.73176621     3.52007781    -1.91543786     1.00795997     0.54198669
Ti      6.11991124    -0.81713778     3.62968883    -0.76646336    -2.14231131    -0.06983864
Ti      1.79993720     2.88709821     3.71169379     1.98812425    -1.12903327    -0.87544964
Ti      1.49725824    -0.97664477     3.79753481     0.48609937     0.89553356     0.78210879
O       3.84531702     4.70353600     0.86494000    -0.49995428     2.27592748    -0.19200594
O       3.87046400     1.00165702     0.82865898    -0.22992253    -1.62557826     0.94857852
O       0.23834403     4.64318402     0.67844598    -0.50986769     0.62213700    -0.38559414
O      -0.23146398     0.95914599     0.64923000     1.12211700    -0.30277733     0.80336102
O       5.79236423     4.73312722     4.07476780     0.35057056     0.49324807    -1.24384618
O       5.35572024     0.83462423     3.84265680     1.00539684     1.04393975     0.12369273
O       2.02010224     4.73745922     4.23522482    -0.90058681     0.81428976    -0.60483322
O       1.98696321     0.95717121     4.08376482    -0.97176757    -0.28585638    -0.55598764
O       3.71855822     2.88696623     3.16003783     0.58820203     0.02987494     0.51878993
O      -0.05212777     2.75499022     3.13995481     1.19492707    -0.23062084     0.52424067
O       5.84708603     6.47183898     1.74804402    -0.23676604     0.55547136     0.15645271
O       5.74212700     2.98794198     1.57645501    -0.38889518    -0.31688884     0.37110468
O       1.87540999    -0.76080300     2.00260600     0.89951646    -0.78311923    -1.39172452
O       1.87722301     3.00505102     1.62376198    -0.92647937    -0.84152083     0.24614645
