# total energy = -19922.91115095 eV

CRYSTAL
PRIMVEC
        6.28532162     0.00000000     0.00000000
        1.64667417     6.48364442     0.00000000
        0.00000000     0.00000000    11.33964971
PRIMCOORD
24 1
Ti      3.25394444     3.84220187     4.20692938    -0.16186566    -1.92467378     0.74789922
Ti      4.67805153     2.64144298     7.13272097     0.16186566     1.92467378    -0.74789922
Ti      6.09154119     2.64144522     1.46285052    -0.00531936    -0.46331630    -0.16460671
Ti      1.84045482     3.84219988     9.87679995     0.00531936     0.46331630     0.16460671
Ti      2.43060749     0.60037971     1.46289599    -0.16186566    -1.92467378    -0.74789922
Ti      5.50138851     5.88326539     9.87675448     0.16186566     1.92467378     0.74789922
Ti      1.01711774     0.60037722     7.13267550     0.00531936     0.46331630    -0.16460671
Ti      6.91487826     5.88326781     4.20697484    -0.00531936    -0.46331630     0.16460671
O       2.56916596     2.28300156     5.78653672     1.79832869     2.01117420    -0.61545908
O       5.36282995     4.20064329     5.55311363    -1.79832869    -2.01117420     0.61545908
O       1.73318224     2.28302773     0.11674808    -0.74930998     0.10789947     0.96121704
O       6.19881381     4.20061724    11.22290194     0.74930998    -0.10789947    -0.96121704
O       4.53949298     0.95882094     0.11671129    -1.79832869    -2.01117420    -0.61545908
O       3.39250299     5.52482390    11.22293874     1.79832869     2.01117420     0.61545908
O       5.37547683     0.95879482     5.78657351     0.74930998    -0.10789947     0.96121704
O       2.55651909     5.52485009     5.55307684    -0.74930998     0.10789947    -0.96121704
O       1.22996085     3.94372022     3.06312246     0.49975399     1.59145868     1.69219531
O       6.70203506     2.53992463     8.27652788    -0.49975399    -1.59145868    -1.69219531
O       4.01609190     2.53986417     2.60673880     0.68892529     1.61821539     0.79913233
O       3.91590408     3.94378074     8.73291135    -0.68892529    -1.61821539    -0.79913233
O       0.40662387     0.70189787     2.60670258     0.49975399     1.59145868    -1.69219531
O       7.52537211     5.78174704     8.73294757    -0.49975399    -1.59145868     1.69219531
O       3.09256710     0.70195832     8.27656403    -0.68892529    -1.61821539     0.79913233
O       4.83942887     5.78168652     3.06308624     0.68892529     1.61821539    -0.79913233
