# total energy = -4985.77674752 eV

CRYSTAL
PRIMVEC
        2.85000344     0.00000000     0.00000000
        1.31017905     4.26900136     0.00000000
       -0.00000873    -0.00005852     4.51777280
PRIMCOORD
6 1
Ti      2.08008694     2.13447146     2.25888640     0.00000000     0.00000000     0.00000000
Ti      0.00000000     0.00000000     0.00000000     0.00000000     0.00000000     0.00000000
O       1.68033463     0.83195417     0.88044736    -4.35206243     1.99549355     2.29841230
O       2.47983930     3.43698874     3.63732539     4.35206243    -1.99549355    -2.29841230
O       0.39974873     1.30249360     3.13933476     4.35092163    -1.99438772     2.29696040
O       0.91042178     2.96644911     1.37843803    -4.35092163     1.99438772    -2.29696040
