# total energy = -19960.44034953 eV

CRYSTAL
PRIMVEC
        5.93400000     0.00000000     0.00000000
        0.00000000     9.29699974     0.00000000
        0.00000000     0.00000000     4.64899994
PRIMCOORD
24 1
Ti      4.43026802     6.80148403     2.28384302    -1.91155446     2.25555071     1.31758621
Ti      4.47753001     2.44114101     2.42812198     0.99303317    -1.66251192    -1.35533979
Ti      1.41825297     7.02113502     2.20787899     1.94352023     0.90569636     0.44254847
Ti      1.50614201     2.27930702     2.36512401    -0.80031478    -0.55923906    -0.68452896
Ti      2.99348098     4.61800699     0.01444601    -2.09490041    -0.89635040    -0.32387581
Ti      2.95433700     9.28910400     4.55271202     1.32470766     0.60930951     1.24510782
Ti      5.91574402     4.74558601     0.00785299     2.15560701    -1.73360732    -0.07681019
Ti      0.01907700     9.18050201     0.04583702    -1.20871153     2.25865943    -0.54853144
O       4.46292799     5.61488802     0.85388602    -0.22539276    -0.03366912     0.04546792
O       4.42937202     0.88366801     0.84136399     0.36042123     0.69176508     0.57550283
O       1.45152499     5.61530602     0.78022799     0.36515412     0.42145153     0.75892437
O       1.49870099     0.92231203     0.86296400    -0.03595406     0.16578017     0.30124213
O       4.47214298     8.36031902     3.79249900     0.08152483    -0.75107273    -0.71291652
O       4.49982398     3.78691501     3.81006101    -0.53852187    -0.53374604    -0.15476401
O       1.51094398     8.43744999     3.72006400    -0.77960993    -1.46560545    -0.66074728
O       1.43294399     3.63226899     3.80451000     0.56098715     1.55873701     0.91678451
O       2.99373700     5.99383302     3.24943899     0.08032129     0.25635862    -0.63333776
O       2.92958299     1.38551802     3.26477899     1.01951477     0.88820411    -0.93145111
O       5.90098601     6.11749899     3.16625302     0.41422441    -0.99058342     0.60577064
O       0.04920200     1.41324299     3.14281300    -1.08021494    -0.04907029     0.55815174
O       2.91036401     7.90777997     1.46105701     0.25410196    -0.99911178     0.24417210
O       2.96449202     3.39557399     1.61855498     0.74244719     0.14208616    -1.21589956
O       0.02975998     7.98141102     1.46467097    -0.42975337    -1.28180133     0.47485028
O       0.05173999     3.25545198     1.45562400    -1.19063718     0.80276992    -0.18790657
