# total energy = -19907.76789338 eV

CRYSTAL
PRIMVEC
        7.23052598     0.00000000     0.00000000
        0.00003362     6.29629075     0.00000000
        0.00000000     0.00000000    11.88342693
PRIMCOORD
24 1
Ti      2.62073781     3.73117594     4.40866679     0.38410033    -0.92079697     0.99267682
Ti      4.60982186     2.56511454     7.47476062    -0.38410033     0.92079697    -0.99267682
Ti      6.23587552     2.56511658     1.53299943     0.38385916     0.92081548    -0.99309616
Ti      0.99468415     3.73117411    10.35042811    -0.38385916    -0.92081548     0.99309616
Ti      2.62072127     0.58303070     1.53304708     0.38410033    -0.92079697    -0.99267682
Ti      4.60983840     5.71325998    10.35038046    -0.38410033     0.92079697     0.99267682
Ti      0.99466760     0.58302839     7.47471297    -0.38385916    -0.92081548    -0.99309616
Ti      6.23589206     5.71326222     4.40871444     0.38385916     0.92081548     0.99309616
O       2.28851898     2.21703091     6.06402199     0.93648482     1.44167258    -0.89859472
O       4.94204069     4.07925957     5.81940542    -0.93648482    -1.44167258     0.89859472
O       1.32680994     2.21705636     0.12234656    -0.93623928     1.44202020    -0.89943624
O       5.90374980     4.07923419    11.76108051     0.93623928    -1.44202020     0.89943624
O       4.94202414     0.93111413     0.12230798    -0.93648482    -1.44167258    -0.89859472
O       2.28853553     5.36517636    11.76111909     0.93648482     1.44167258     0.89859472
O       5.90373319     0.93108875     6.06406056     0.93623928    -1.44202020    -0.89943624
O       1.32682635     5.36520180     5.81936684    -0.93623928     1.44202020     0.89943624
O       0.26272206     3.82976098     3.21001020    -0.83028280     0.08320581    -0.00416750
O       6.96783761     2.46652950     8.67341721     0.83028280    -0.08320581     0.00416750
O       3.87799228     2.46647098     2.73174131    -0.83022392    -0.08304049     0.00401298
O       3.35256739     3.82981950     9.15168590     0.83022392     0.08304049    -0.00401298
O       0.26270545     0.68161554     2.73170334    -0.83028280     0.08320581     0.00416750
O       6.96785422     5.61467494     9.15172387     0.83028280    -0.08320581    -0.00416750
O       3.35255078     0.68167405     8.67345511     0.83022392     0.08304049     0.00401298
O       3.87800889     5.61461643     3.20997223    -0.83022392    -0.08304049    -0.00401298
