# total energy = -19516.74291188 eV

CRYSTAL
PRIMVEC
        5.17600016     0.00000000     0.00000000
        0.00000000     5.50899976     0.00000000
        0.00000000     0.00000000     9.26300011
PRIMCOORD
23 1
Ti      1.92872799     3.16357898     3.41578401     0.62892009    -0.78873658     1.15455610
Ti      3.18997497     2.27706299     5.88352999     2.28684336    -0.31358291    -1.12787910
Ti      4.33703202     2.15558098     1.33857698    -0.25439070     0.84243152     0.01258967
Ti      0.77562399     3.48110200     7.91351700    -2.21830955    -1.25769003     0.12948723
Ti      2.10463598     0.07001698     1.41948199    -0.88156012     2.67055802    -0.25229011
Ti      3.28918899     5.05136098     8.00242999     2.00197068    -1.14635865     1.01069948
Ti      0.78317497     0.53260097     5.86900799    -1.65069692     1.07603330    -1.31433454
Ti      4.65034702     4.99535000     3.41932198    -0.56527627     0.95778642     1.80120164
O       1.68760298     1.92767302     4.79042299    -1.41508917    -0.74487072    -0.31865750
O       3.51107100     3.42541302     4.44315502     0.99631724     1.47123025    -0.08054858
O       4.25598598     3.36404899     9.11505098     1.22988328     0.11154889    -0.01910793
O       3.32866101     0.90573798     0.20181201     0.97273148    -0.26919434    -0.24709262
O       1.72862998     4.80250802     8.97847002    -1.96686765    -1.47832702     1.33425340
O       4.22631200     0.69176701     4.89278502     0.45813913    -1.13302825    -1.75192232
O       1.06434002     4.78760702     4.43427500     0.40419839    -0.45233949    -0.22909129
O       0.27035200     3.46299302     2.52024401     0.80252901    -0.83896079    -1.21811842
O       4.90967001     2.13310900     6.61511902     1.77838155     0.39800306     1.87543713
O       2.89557197     1.71268000     2.48501102    -0.39360544    -0.27320861    -0.97197866
O       2.29720602     3.60272201     6.84320902     0.55552433     0.05152801     1.21387610
O       0.34308000     0.75785998     2.18054900     0.17000269    -0.52076608    -1.02972411
O       5.08481800     4.82851798     7.07979501    -0.81308159     0.87285591     0.08913684
O       2.52039700     0.65380701     6.86754699    -1.39900100     1.29736731    -0.85128666
O       3.16840100     4.36378198     2.13338898    -0.72756256    -0.53227846     0.79079372
