# total energy = -19958.84747413 eV

CRYSTAL
PRIMVEC
        7.60600008     0.00000000     0.00000000
        0.00000000     7.60600008     0.00000000
       -1.89786986    -1.89786986     4.85670466
PRIMCOORD
24 1
Ti      3.70548702     6.72737699     1.31691802     2.98072162    -0.29334858    -1.27073633
Ti      3.85483698     2.94406202     1.21475501    -0.48348636     0.46175179     0.62503181
Ti      0.16054597     6.49966302     1.17999600    -2.59829277     1.65477675    -0.06345279
Ti      0.01564200     2.77663600     1.22507798     1.28707544    -0.98553223    -1.39428174
Ti      5.78692720     2.59113424     3.57912981    -1.33452722     1.91203706     0.12728662
Ti      5.59627622    -1.07344378     3.60986283     1.10929361    -1.38896341    -0.30292903
Ti      1.90927321     2.98799320     3.57686080     1.95005340     0.25825121     0.04573223
Ti      1.79884720    -0.78462376     3.63534081    -0.61726168    -0.19428548     2.55554302
O       3.62677502     4.89595601     1.00900798     0.01881225    -0.20252227    -1.68781158
O       3.68802501     1.17686703     0.97566701     0.48312615    -2.08278665    -1.46973927
O       0.07533600     4.70853101     0.83526898     0.72519997    -1.82143392    -0.65085701
O      -0.04145299     0.79864399     0.81565598     0.61016826     0.28088644    -0.92806728
O       5.53591721     4.52025721     4.03468480     1.51362828     1.30599491     0.12171221
O       5.53141322     0.80290921     4.12747984     0.89549499     1.77375202    -0.81806439
O       1.87152324     4.90811624     3.96892981    -0.26289231    -0.45093567     1.24173067
O       1.91450423     1.06091424     3.87728383     0.37731801     0.73091939     2.23268459
O       3.85018921     2.96600023     3.23930879     0.55677568    -0.85800650    -0.66862257
O       3.84384221    -0.79209076     3.20362383    -0.95742775    -0.25428271     0.82522698
O       0.16180224     2.75865022     3.07374479    -3.17277950    -0.01829983     2.31069189
O      -0.03965078    -0.72137575     3.05495979     0.04703501    -0.72068563     1.93348186
O       5.70317098     6.38535200     1.68392398    -0.46693153     0.63271941    -0.24901092
O       5.83674299     2.71622999     1.52366498    -1.98538629     0.37362051     1.45616153
O       1.94834200    -0.71969799     1.87132898    -0.75363638    -0.57315207    -3.69791106
O       1.96236599     2.87339998     1.64005000     0.07791885     0.45952521    -0.27379945
