# total energy = -19959.02268328 eV

CRYSTAL
PRIMVEC
        7.60600008     0.00000000     0.00000000
        0.00000000     7.60600008     0.00000000
       -1.89786986    -1.89786986     4.85670466
PRIMCOORD
24 1
Ti      3.84210100     6.64697797     1.23158300    -0.12957825     1.01541592     1.62694300
Ti      3.85938398     2.99018098     1.21465002    -3.59245414    -0.86352743    -1.78618357
Ti      0.00985201     6.47466400     1.24321802    -0.31915115     1.95107953     0.39890526
Ti      0.00694498     2.94779298     1.05524400     1.84621473    -2.02349673     0.37954125
Ti      5.66746723     2.90379322     3.55046279     0.39249935    -1.28916189    -0.31406191
Ti      5.82822324    -1.10881377     3.81342081    -3.46355878     1.47423279     0.33260446
Ti      1.79271621     2.95311222     3.49957182    -0.03843981    -1.53885518     0.24476063
Ti      1.83496720    -0.97068978     3.73431479     1.94172688     1.15510503     0.75683689
O       3.41267800     4.93289899     0.61115802     0.68580500    -1.84794740     1.34510140
O       3.81349400     1.08611498     0.96257601     0.17315383    -1.11347886    -1.45024542
O       0.49589200     4.71925098     0.59196799    -1.11578205     0.11307793     1.15870972
O       0.02539802     0.84471099     0.89124599    -0.42440444    -0.66833666    -0.50629874
O       5.47446221     4.64997220     4.18277680     0.29422944    -0.18002408    -0.04716999
O       5.74262824     0.93502323     3.99480679    -0.18272066     0.51477670     0.13655442
O       2.04221921     4.81813822     4.16490283     0.14741014     0.64958406    -0.96736970
O       1.80893623     1.13254325     3.96475683     0.08314539    -1.11703907     0.76511842
O       3.71415520     2.92459422     3.16841582     0.93967325     0.45425342    -0.29539827
O       4.00219321    -1.01810279     3.38148882    -1.77779971     0.35566649    -0.90697600
O      -0.07679076     3.18232524     3.13164482    -0.61074161     0.07096582    -1.30933117
O       0.00129421    -1.26488476     3.49807382     0.93762356     0.16631187    -1.64226884
O       5.67222798     6.54061202     1.62343600     2.43269412    -0.79658488     0.24220289
O       5.57161402     2.89377600     1.44279399     3.47810300     0.72647627     0.91004127
O       1.92277099     6.62819202     1.84345002    -0.86136693     0.37543185    -0.25031653
O       1.80433001     2.43620998     1.46755600    -0.83628118     2.41607451     1.17830076
