# total energy = -4977.65919867 eV

CRYSTAL
PRIMVEC
        3.97999451     0.00000000     0.00000000
       -0.00000683     2.94173524     0.00000000
       -1.99002161    -1.47090610     4.51849984
PRIMCOORD
6 1
Ti     -0.00017188     2.20640975     1.12962469    -0.00663396    -0.01308075    15.27959276
Ti      1.99013775    -0.73558061     3.38887447     0.00663396     0.01308075   -15.27959276
O       0.00004151     0.73542685     0.73602658     0.00602770     0.01284164    -5.52261620
O       1.98992422     0.73540225     3.78247259    -0.00602770    -0.01284164     5.52261620
O      -0.00001781    -0.73542402     2.99527635    -0.00016429    -0.00026739     2.01050366
O       1.98998350     2.20625301     1.52322286     0.00016429     0.00026739    -2.01050366
