# total energy = -4987.29004850 eV

CRYSTAL
PRIMVEC
        3.05707789     0.00000000     0.00000000
        1.62667684     4.50531429     0.00000000
       -0.00001057    -0.00006347     4.86734121
PRIMCOORD
6 1
Ti      2.34187207     2.25262536     2.43367061     0.00000000     0.00000000     0.00000000
Ti      0.00000000     0.00000000     0.00000000     0.00000000     0.00000000     0.00000000
O       1.84555221     0.87800702     0.94857313    -1.72612000     0.96286101     0.85535517
O       2.83819193     3.62724370     3.91876814     1.72612000    -0.96286101    -0.85535517
O       0.49631542     1.37459269     3.38224470     1.72572740    -0.96290574     0.85533486
O       1.13035094     3.13065802     1.48509656    -1.72572740     0.96290574    -0.85533486
