# total energy = -19516.83457551 eV

CRYSTAL
PRIMVEC
        5.93400000     0.00000000     0.00000000
        0.00000000     9.29699974     0.00000000
        0.00000000     0.00000000     4.64899994
PRIMCOORD
23 1
Ti      4.61707098     7.21515897     2.23988300    -0.61045057    -1.18748989    -0.37961427
Ti      4.47881998     2.29970802     2.39273198    -0.63105102    -0.93882993     0.44148480
Ti      1.33045199     7.00874900     2.09903803     0.36767354    -0.00791874     1.15369684
Ti      1.47459501     2.26329099     2.30274602     0.18332435    -0.66932371     0.91316825
Ti      3.02903101     4.44107297     0.21099498    -1.44674075    -1.74898329     0.23959914
Ti      2.91529002     9.21619602     0.02231599    -0.14190026     1.37872296    -0.47320786
Ti      5.91768002     4.64950700     0.03047802     0.32345930    -0.80401768    -1.26838531
Ti      5.86598300     0.10854801     4.58490801     0.71743446     1.24508982    -0.21433007
O       4.31277702     5.47242398     1.02551799     0.31321293     1.07590963    -0.13527016
O       4.37184997     0.90210698     0.77355802     1.94872106     0.93236180     1.38720374
O       1.42432602     5.52753001     0.81873299     1.25085115     1.54421027     1.33295396
O       1.56407999     0.96144003     0.83069202    -0.95822479    -0.24628529     0.48320328
O       4.55536700     8.45399001     3.56784399    -0.08090365     0.01782007     1.21487241
O       4.37866102     3.46613702     4.02980599    -0.05117680     1.16635541    -1.43048211
O       1.62563802     8.41635000     3.72466800    -2.07946144    -2.20826630    -1.57402403
O       1.48582002     3.73068702     3.73384298     0.43850361     0.91093962     0.48618242
O       2.97011998     1.23702998     3.17714698     0.66720049     1.44912210    -0.88855816
O       5.84629702     6.03884600     3.26082202     0.29876513     0.28443071    -0.40895365
O       0.05767598     1.61625602     3.41983798    -0.57387609    -1.06004026    -1.07532316
O       3.05471902     7.99636001     1.43436499    -0.77562909    -2.38803842     0.95460365
O       2.92730398     3.19924298     1.62429200     1.11994158     1.44394904    -1.08094693
O       0.01519400     8.03918802     1.32160002     0.70942522     0.01657745    -0.42761498
O       0.09116899     3.21111301     1.38429398    -0.98909835    -0.20629588     0.74974296
