# total energy = -19939.06673641 eV

CRYSTAL
PRIMVEC
        4.65963348     0.00000000     0.00000000
        0.24783362     4.95306261     0.00000000
        0.00000000     0.00000000     8.34232710
PRIMCOORD
24 1
Ti      1.83575893     2.93518020     3.09494385     0.69916651     0.96997782    -1.06053134
Ti      3.07170797     2.01788223     5.24738334    -0.69916651    -0.96997782     1.06053134
Ti      4.11960051     2.01788392     1.07618641    -0.96765252    -1.15778669     1.77154499
Ti      0.78786644     2.93517869     7.26614088     0.96765252     1.15778669    -1.77154499
Ti      1.71184222     0.45864908     1.07621984     0.69945602     0.96962044     1.05886321
Ti      3.19562469     4.49441349     7.26610745    -0.69945602    -0.96962044    -1.05886321
Ti      0.66394973     0.45864724     5.24734986     0.96778364     1.15720588     1.77325143
Ti      4.24351723     4.49441533     3.09497733    -0.96778364    -1.15720588    -1.77325143
O       1.56206977     1.74405747     4.25702567    -2.61403358    -2.19669942    -0.41255037
O       3.34539713     3.20900496     4.08530153     2.61403358     2.19669942     0.41255037
O       0.94230797     1.74407746     0.08588893     2.49994007    -2.18884418    -0.32515828
O       3.96515899     3.20898501     8.25643803    -2.49994007     2.18884418     0.32515828
O       3.22148042     0.73247369     0.08586188     2.61264390     2.19517244    -0.41273703
O       1.68598649     4.22058873     8.25646508    -2.61264390    -2.19517244     0.41273703
O       3.84124228     0.73245375     4.25705277    -2.50121611     2.18973661    -0.32544984
O       1.06622458     4.22060877     4.08527443     2.50121611    -2.18973661     0.32544984
O       0.32004171     3.01273335     2.25347071    -1.12773614    -0.08080492    -1.24603856
O       4.58742524     1.94032908     6.08885653     1.12773614     0.08080492     1.24603856
O       2.59620602     1.94028293     1.91771941    -0.62429005    -1.17483594    -0.04722090
O       2.31126093     3.01277949     6.42460764     0.62429005     1.17483594     0.04722090
O       0.19612500     0.53620209     1.91769279    -1.12889494    -0.08123481     1.24279562
O       4.71134196     4.41686034     6.42463426     1.12889494     0.08123481    -1.24279562
O       2.18734422     0.53624823     6.08888311     0.62343978     1.17530800    -0.04618114
O       2.72012273     4.41681419     2.25344404    -0.62343978    -1.17530800     0.04618114
