# total energy = -4984.58099075 eV

CRYSTAL
PRIMVEC
        2.67096570     0.00000000     0.00000000
        0.20911967     4.17977481     0.00000000
       -0.00000115    -0.00005432     4.18631218
PRIMCOORD
6 1
Ti      1.44004201     2.08986011     2.09315599     0.00000000     0.00000000     0.00000000
Ti      0.00000000     0.00000000     0.00000000     0.00000000     0.00000000     0.00000000
O       1.37623689     0.81456586     0.81585053    -1.23694071     1.78395416     1.80260958
O       1.50384708     3.36515435     3.37046141     1.23694071    -1.78395416    -1.80260958
O       0.06380454     1.27527223     2.90900737     1.23660518    -1.78272672     1.80127749
O       0.14531388     2.90444817     1.27730457    -1.23660518     1.78272672    -1.80127749
