# total energy = -19075.24213935 eV

CRYSTAL
PRIMVEC
        7.60600008     0.00000000     0.00000000
        0.00000000     7.60600008     0.00000000
       -1.89786986    -1.89786986     4.85670466
PRIMCOORD
22 1
Ti      3.77021698     6.52577199     1.24024902    -0.77517761    -0.82303562     0.28569235
Ti      3.75248198     2.73992697     1.21292501     0.00660362     1.47115286    -0.40740225
Ti     -0.03907799     6.63835101     1.24058002     0.99323835     0.30933108    -1.88968388
Ti     -0.07092600     2.94374901     1.13626701    -0.26208396    -0.48096539     0.59288555
Ti      5.66420120     2.95490724     3.52135381     1.08959253     0.96565888     0.70066727
Ti      6.14383122    -0.78455676     3.68525382    -1.76232475    -1.44816282     0.60405160
Ti      1.87047124     2.70207821     3.57046083    -0.74525998     0.47673207     0.58611584
Ti      1.96534224    -1.10436678     3.82068282    -1.42399213     1.20928231    -2.02753362
O       3.44627298     4.67635597     0.70460702     1.11015725    -0.28520949    -0.13685833
O       3.77911198     0.86355599     0.97531400     0.28699770     0.43258055    -0.22680609
O       0.10202199     4.76764302     0.70339298    -0.61207705     0.91947260    -0.37282964
O       7.23239899     1.04912602     0.64993899     0.95260693    -0.49303801     1.27486012
O       6.00457521     4.88634324     4.07115881    -0.67658682    -0.11046209    -0.13441835
O       5.48287021     0.96809522     3.99526379     1.08549985     1.10510657    -0.89622519
O       1.82006520     4.72261321     4.22716080     0.47319963    -0.72391930    -1.31989044
O       2.00790121     0.84479825     3.91732979     0.01089660     0.17158906     0.80892875
O       3.78801221     2.96683723     3.14534882    -0.49500619    -0.05842680     0.59526125
O       0.01940324     3.05672825     3.13043782    -0.17903678    -1.29176050    -0.27790987
O       5.59992099     6.62865098     1.82652698     0.86214906    -0.39498767     0.46455660
O       5.64431298     3.32545001     1.59639002     0.12419127    -1.32395947     0.06521657
O       1.76610801     6.48619498     1.76717600     0.76677832     0.79930459     1.44108843
O       1.90158702     2.76896002     1.52707500    -0.83036610    -0.42628366     0.27023307
