# total energy = -4987.24244094 eV

CRYSTAL
PRIMVEC
        3.49998950     0.00000000     0.00000000
        0.17488268     3.49561762     0.00000000
       -1.83746716    -1.74783836     4.46816245
PRIMCOORD
6 1
Ti      0.13102062     2.62184595     1.11704049     0.00173884    -0.00162879    -0.00170696
Ti      1.70638395    -0.87406712     3.35112171    -0.00173884     0.00162879     0.00170696
O       0.04375749     0.87389869     0.72782713     0.00051911     0.00299971     1.80753067
O       1.79364693     0.87388005     3.74033512    -0.00051911    -0.00299971    -1.80753067
O      -0.04374023    -0.87388227     2.96190835     0.00298197     0.00050291     1.80477728
O       1.88114465     2.62166095     1.50625395    -0.00298197    -0.00050291    -1.80477728
