# total energy = -19949.86390600 eV

CRYSTAL
PRIMVEC
        5.20186879     0.00000000     0.00000000
        1.88017241     5.20732700     0.00000000
        0.00000000     0.00000000     9.46055394
PRIMCOORD
24 1
Ti      2.99961575     3.08585708     3.50979805     2.11514040    -2.91093723     1.14461621
Ti      4.08242564     2.12146978     5.95075599    -2.11514040     2.91093723    -1.14461621
Ti      5.25226062     2.12147156     1.22044120    -4.34221484     0.08708535     1.37389879
Ti      1.82978079     3.08585546     8.24011295     4.34221484    -0.08708535    -1.37389879
Ti      2.05952967     0.48219371     1.22047913     2.11499950    -2.91073617    -1.14185922
Ti      5.02251173     4.72513325     8.24007502    -2.11499950     2.91073617     1.14185922
Ti      0.88969461     0.48219180     5.95071806     4.34230149    -0.08814182     1.36932069
Ti      6.19234680     4.72513522     3.50983598    -4.34230149     0.08814182    -1.36932069
O       2.30846503     1.83358830     4.82764826     0.21751129     1.04753646    -1.01009528
O       4.77357636     3.37373856     4.63290578    -0.21751129    -1.04753646     1.01009528
O       1.61658878     1.83360930     0.09740173     0.78236359    -0.69860498     0.19645549
O       5.46545266     3.37371760     9.36315205    -0.78236359     0.69860498    -0.19645549
O       3.83349026     0.77007509     0.09737103    -0.21749433    -1.04756475    -1.01002226
O       3.24855112     4.43725177     9.36318275     0.21749433     1.04756475     1.01002226
O       4.52536656     0.77005408     4.82767896    -0.78269937     0.69825583     0.19624852
O       2.55667477     4.43727279     4.63287508     0.78269937    -0.69825583    -0.19624852
O       1.33262333     3.16739139     2.55553164     0.12362640    -0.19861934    -0.29967144
O       5.74941805     2.03993548     6.90502240    -0.12362640     0.19861934     0.29967144
O       3.52646818     2.03988697     2.17477545     1.63160982    -0.59324551    -1.36286002
O       3.55557320     3.16743989     7.28577844    -1.63160982     0.59324551     1.36286002
O       0.39253724     0.56372792     2.17474522     0.12370405    -0.19883017     0.29906749
O       6.68950415     4.64359894     7.28580866    -0.12370405     0.19883017    -0.29906749
O       2.61548711     0.56377643     6.90505252    -1.63173657     0.59346971    -1.36334236
O       4.46655427     4.64355044     2.55550147     1.63173657    -0.59346971     1.36334236
