# total energy = -19072.24093651 eV

CRYSTAL
PRIMVEC
        5.93400000     0.00000000     0.00000000
        0.00000000     9.29699974     0.00000000
        0.00000000     0.00000000     4.64899994
PRIMCOORD
22 1
Ti      4.37101398     7.09140701     2.35593998     1.51715249    -0.59693993    -0.23792458
Ti      4.41712601     2.26298301     2.32753099     1.16345289    -0.26376109     0.71205751
Ti      1.38377099     7.15597299     2.37965501    -0.01393333    -0.54669258     1.28709163
Ti      1.65060402     2.40291801     2.27804599    -0.48488170     0.71530353    -0.44689518
Ti      3.12162898     4.80551502     4.48267398    -1.73079479    -0.08927645    -1.29215800
Ti      3.15246102     0.03340098     0.14252098    -1.93559583     0.67147829    -0.29870445
Ti      5.81282598     4.55864499     4.64362599     1.42319046    -1.68265909    -1.99949779
Ti      5.89580701     0.02755902     0.07562297     1.47080628    -0.76839580     0.18655520
O       4.56582799     5.54069399     0.81930101    -1.37258830     0.73472900     0.86379817
O       4.52035299     0.60184398     1.37676902     0.37534598    -0.19715381    -1.30559998
O       1.43607101     0.64006100     0.94599202     0.42205265     2.29519070     0.44693529
O       4.27730299     8.24414398     3.81863601     1.13026123     0.96384651     0.28537302
O       4.33662698     3.91043303     3.47079601     0.36143630    -1.64629082     1.05822249
O       1.43594401     8.27696498     3.77424201    -0.52919493     0.64571172     0.02941986
O       1.50367499     3.97327002     3.73282601     0.28207146    -1.03374532    -0.25555001
O       2.95878198     6.10846800     3.09605099    -1.21661433    -1.37106030     1.27849541
O       2.93631201     1.43611398     3.26509301    -0.65332167    -0.78073968     1.66371494
O       5.58607400     5.87746398     3.05748201     2.72221279     1.16856065     0.63338276
O       2.88850201     7.79239399     1.41961502    -0.83990721     0.34116083    -1.32484958
O       3.16008699     2.75508399     1.18404902    -1.96268267     2.23900128    -1.07059747
O       0.04175198     7.94537400     1.42253598    -0.78027431    -1.48955246    -0.11399221
O       5.92432500     2.96440100     1.37890902     0.65180703     0.69128454    -0.09927624
