# total energy = -19068.92120714 eV

CRYSTAL
PRIMVEC
        5.17600016     0.00000000     0.00000000
        0.00000000     5.50899976     0.00000000
        0.00000000     0.00000000     9.26300011
PRIMCOORD
22 1
Ti      1.88626400     3.23146998     3.25955199    -0.28429881     1.73496537    -0.40804914
Ti      3.76068698     1.96118301     6.02208002    -0.62937132     2.18145277    -1.79745812
Ti      4.35221501     2.26663799     1.57661101    -0.05600508     0.33283663     0.17360326
Ti      1.21486799     3.20240201     7.96982500    -1.65669196    -2.42531326    -0.20817176
Ti      1.63502297     0.58762900     1.20897898     1.99517294    -1.02606337    -0.83050931
Ti      3.30990199     5.26211598     7.90508900     1.32618296     2.67486205     1.32713452
Ti      0.65999600     0.05266002     6.16192998     0.65819108     0.33836167     0.60818568
Ti      4.34880198     5.10899701     3.50953998    -0.34214402    -0.84785423    -0.47674467
O       3.16571199     2.37923299     4.35154999    -0.36119539     1.55003305    -1.72791129
O       0.32950301     2.30153500     0.30096501     1.84880204     0.04025989    -1.96284362
O       5.15631201     3.91113403     6.69439898    -1.11477084     0.24045814     1.21776156
O       3.32074102     0.85382601     0.19952501     0.08596538    -0.46801063     0.44893509
O       1.78851602     4.56958198     9.01878401    -0.50700836     1.31500945     1.54068632
O       3.91941999     0.17889303     5.38627398     0.07627257    -0.13157857    -0.28737899
O       0.81827498     5.09106499     4.48582301     1.64912032    -0.67745405    -0.54670055
O       0.24777598     3.83933102     2.30330600    -2.59103094    -1.56607546     1.24888194
O       4.85759299     1.60241602     7.33052999     3.93984759    -2.69841773     1.11740236
O       2.44066300     2.34929600     1.73846199    -0.63601428    -0.30994917     0.70051763
O       2.42053702     4.13141099     6.87180099    -0.25204122    -1.30290341    -2.72256400
O       0.00129902     0.75654799     2.24267800    -0.44856022     0.64992216     1.31091291
O       2.48737300     1.46364400     7.10443001    -4.36718206    -1.04930076     1.16033337
O       2.43624199     4.86954499     2.54329402     1.66675964     1.44475971     0.11397679
