# total energy = -19514.96910410 eV

CRYSTAL
PRIMVEC
        5.93400000     0.00000000     0.00000000
        0.00000000     9.29699974     0.00000000
        0.00000000     0.00000000     4.64899994
PRIMCOORD
23 1
Ti      4.68204902     7.17429898     2.14650300     0.86091107    -1.63555312    -0.53029485
Ti      4.38960800     2.27422300     2.45410702    -0.41052485    -0.78490769    -0.12940444
Ti      1.45126099     6.85391702     2.42956102    -0.15257652     1.14572256    -0.47684340
Ti      1.46632000     2.52020602     2.13495598    -1.09201554    -1.85749031     0.45450179
Ti      2.93944701     4.52411798     4.55042798     0.48567514     1.00567298     2.46868624
Ti      3.18178199     9.17773198     4.46333398    -3.87434871     1.15864004     0.28447930
Ti      0.01223802     4.52158697     0.07022198     0.48945595     2.16997999    -0.38345447
Ti      0.01761102     0.13374198     4.58797898     2.90662523    -0.11433571     0.78272997
O       4.09135698     5.76209799     1.10831000     0.89642085    -1.98482090    -2.08785455
O       4.16208898     0.77832999     1.05098999     1.57096827    -0.19943360    -0.18733116
O       1.43692399     5.45144999     1.15023798    -0.24908368    -0.60986281    -0.85492014
O       1.24535500     1.13574001     0.88822401     0.29886926    -0.34825554     0.27005978
O       4.55983601     8.42064798     3.62699400     0.59488562     0.16966613     1.45866604
O       4.42558602     3.86358898     3.69079801    -0.55733335    -0.43292508    -0.43140427
O       1.46504701     8.28916802     3.83085202     0.26593830     0.89257988     1.03937989
O       1.44462701     3.57978398     3.89699198    -0.67082009     1.04026075    -1.33698571
O       2.89745198     1.52747400     3.51981697     0.59022523    -0.37830403    -1.93185127
O       5.78782802     5.94484602     3.32772198     0.44775598     1.10942140    -0.17249538
O       5.91523199     1.43492597     3.17264299    -0.53201466    -0.04565458     0.49074459
O       3.02140202     7.78685900     1.90381602    -1.52330925     0.41667776    -1.26536966
O       2.92134502     3.18006401     1.22951699     1.16059974    -0.18254916     1.55285947
O       0.36907499     8.03407299     1.43045099    -1.95331948    -1.30655644     0.57206732
O       5.67074300     3.14669399     1.32888002     0.44701628     0.77202775     0.41403467
