# total energy = -19953.61694257 eV

CRYSTAL
PRIMVEC
        5.53967180     0.00000000     0.00000000
        1.16753106     5.77912990     0.00000000
        0.00000000     0.00000000     9.96523597
PRIMCOORD
24 1
Ti      2.69974232     3.42470703     3.69703160     0.41957102    -1.68497334     0.86501815
Ti      4.00746027     2.35442301     6.26820477    -0.41957102     1.68497334    -0.86501815
Ti      5.25326252     2.35442508     1.28554677    -0.83941484    -0.40898219     0.21260666
Ti      1.45394010     3.42470518     8.67968971     0.83941484     0.40898219    -0.21260666
Ti      2.11597693     0.53514229     1.28558673     0.41957102    -1.68497334    -0.86501815
Ti      4.59122569     5.24398792     8.67964975    -0.41957102     1.68497334     0.86501815
Ti      0.87017460     0.53514006     6.26816481     0.83941484     0.40898219     0.21260666
Ti      5.83702801     5.24399015     3.69707155    -0.83941484    -0.40898219    -0.21260666
O       2.16444854     2.03492991     5.08518379     1.17181181     1.45413575    -0.56312914
O       4.54275406     3.74420013     4.88005258    -1.17181181    -1.45413575     0.56312914
O       1.42763939     2.03495318     0.10259770    -0.38377354    -0.02627951     0.66311963
O       5.27956327     3.74417691     9.86263838     0.38377354     0.02627951    -0.66311963
O       3.95898864     0.85463523     0.10256535    -1.17181181    -1.45413575    -0.56312914
O       2.74821395     4.92449481     9.86267073     1.17181181     1.45413575     0.56312914
O       4.69579785     0.85461201     5.08521614     0.38377354     0.02627951     0.66311963
O       2.01140469     4.92451810     4.88002023    -0.38377354    -0.02627951    -0.66311963
O       0.91142761     3.51519434     2.69185895     0.18198198     0.73858462     0.75378499
O       5.79577499     2.26393570     7.27337742    -0.18198198    -0.73858462    -0.75378499
O       3.42847745     2.26388172     2.29079094     0.80308257     0.74391889     0.04565098
O       3.27872514     3.51524832     7.67444526    -0.80308257    -0.74391889    -0.04565098
O       0.32766219     0.62562943     2.29075910     0.18198198     0.73858462    -0.75378499
O       6.37954041     5.15350066     7.67447710    -0.18198198    -0.73858462     0.75378499
O       2.69495973     0.62568336     7.27340921    -0.80308257    -0.74391889     0.04565098
O       4.01224287     5.15344669     2.69182710     0.80308257     0.74391889    -0.04565098
