# total energy = -19960.85466657 eV

CRYSTAL
PRIMVEC
        5.93400000     0.00000000     0.00000000
        0.00000000     9.29699974     0.00000000
        0.00000000     0.00000000     4.64899994
PRIMCOORD
24 1
Ti      4.47201201     7.02912999     2.45607900    -0.59752640    -1.28357874    -0.78031647
Ti      4.45170600     2.35024497     2.40146902     0.45384487    -0.69011597    -1.03754464
Ti      1.47031899     6.96496799     2.23930101     0.42035650    -0.37946411     0.37015106
Ti      1.51159799     2.34750701     2.28683202    -0.26718477    -0.46221587    -0.43621635
Ti      2.95202799     4.59964702     0.00783399     0.27456127     0.78577364    -0.38945285
Ti      2.96256401     9.21143501     4.62027298     0.54289146     1.67348436     1.46380645
Ti      5.89653499     4.69001002     0.04363400    -0.34942848     0.02054235     0.28674264
Ti      0.02758299     9.26422102     4.56283502    -0.58873656     1.66954723     1.63858805
O       4.38907602     5.64064498     0.91655299     0.75464503    -0.71603193    -0.37640219
O       4.39305501     0.96192798     0.77925901     0.11552948    -0.54084795     0.49470383
O       1.52004800     5.51027503     0.93788598    -0.56954867     0.56551821     0.22579771
O       1.52586800     0.94718701     0.87839000    -0.23339892     0.01164247    -0.12323893
O       4.46434201     8.44746700     3.72471800    -0.24730242    -0.92571858    -0.04392757
O       4.48824600     3.76813901     3.70725198    -0.13048456    -0.00383146     0.16232152
O       1.42589498     8.33406601     3.84926098     0.66024077    -0.67170943    -0.95320780
O       1.47436100     3.70872002     3.77037298    -0.04388283    -0.15667306    -0.63421605
O       2.94840201     6.12196101     3.33864002    -0.06817591     0.22827239    -0.85205336
O       3.04390602     1.38153400     3.14066402    -1.20543363     0.25624112     0.05641645
O       5.91616599     6.01846198     3.19714099     0.12804613     0.35536618     0.30795348
O       0.00524298     1.28177001     3.18201699     0.45483577     1.48020649    -0.90291572
O       2.93484100     7.90785300     1.48962502     0.03057814     0.10103771    -0.37557043
O       3.05016201     3.23319098     1.29891901    -0.72245943    -0.68114410     1.55618673
O       5.90136998     7.93237100     1.49795601     0.33822540    -0.23718950    -0.15360316
O       5.88696202     3.26582999     1.39030702     0.84980776    -0.39911146     0.49599709
