# total energy = -19961.07750954 eV

CRYSTAL
PRIMVEC
        5.93400000     0.00000000     0.00000000
        0.00000000     9.29699974     0.00000000
        0.00000000     0.00000000     4.64899994
PRIMCOORD
24 1
Ti      4.42075701     6.94953898     2.25007802     0.41758870    -0.64027897     0.67007858
Ti      4.47749698     2.25614001     2.28157100    -0.07358886     1.12343237     0.72329992
Ti      1.50418797     7.02355098     2.39056902    -0.62094813    -1.46683701    -0.29350799
Ti      1.47366799     2.32716300     2.28753398     0.31679551     0.55324016     0.11705517
Ti      2.98653802     4.64540598     4.63093198    -0.92771401    -0.92770476     0.32400231
Ti      2.97688202     0.00664498     4.62807601    -0.01709013     0.83129761    -0.20068496
Ti      5.90597499     4.66797100     4.62097699     0.98271636    -0.51752726    -0.10955937
Ti      5.92029399     9.23784101     0.07215797    -0.02858271     0.85365542    -0.37943300
O       4.53967701     5.53868200     0.99624200    -0.66008367     0.26834434    -0.50977796
O       4.47876198     0.94370502     0.95545302    -0.29991390    -1.23865229    -0.96208582
O       1.47790898     5.53832899     0.95537200     0.11784347     0.47205960     0.06272877
O       1.48850702     0.95924399     0.89333401    -0.21578017    -0.29178381     0.26775375
O       4.41254799     8.37420601     3.80413899     0.21966819     0.38747696    -0.01073410
O       4.46994499     3.69719301     3.73794500     0.01031990     0.98210315     0.38437467
O       1.47621900     8.50295801     3.78129901     0.16805174    -1.14259610    -0.69141849
O       1.52507100     3.77923501     3.71112101    -0.40750509     0.02327029     0.02311397
O       3.03986602     5.99016201     3.25373999    -0.54510030     1.57170772    -0.68317579
O       2.96829903     1.42449901     3.19398799    -0.48883580    -0.25604186     0.31839833
O       5.92130202     6.19513501     3.29209602     0.28313024    -0.43756721     0.12197806
O       5.92145998     1.41252601     3.27051602     0.17528862     0.20271536    -0.50271667
O       2.92605602     7.88551802     1.40963601     0.17306076    -0.00752408     0.41001063
O       2.94520700     3.29335102     1.37817801    -0.11565958    -0.85760283     0.63114667
O       5.92969499     7.82750299     1.44103998     0.42889488     0.94796094    -0.41768486
O       5.81896301     3.23650299     1.34009000     1.10744345    -0.43314825     0.70683792
