# total energy = -19957.22651861 eV

CRYSTAL
PRIMVEC
        5.93400000     0.00000000     0.00000000
        0.00000000     9.29699974     0.00000000
        0.00000000     0.00000000     4.64899994
PRIMCOORD
24 1
Ti      4.37800600     7.06020101     2.19086398     1.44576424    -1.39350938    -0.14479456
Ti      4.37404802     2.18067600     2.45101498     0.66933939     3.17802533     0.56440518
Ti      1.51961402     6.96021201     2.54402101    -1.05139081     0.16086524     0.03347423
Ti      1.53084702     2.31719902     2.18337300    -1.92387416     2.31148662    -0.64821880
Ti      2.88696602     4.51016199     0.06521300     2.44162203     2.14118902    -0.60241278
Ti      3.04187699     0.16057201     4.54689699    -2.61227469    -3.82294231    -0.33948679
Ti      0.09554602     4.60806502     0.03275602    -2.58511149     1.32152977    -0.28059513
Ti      5.81543599     0.40494501     4.55703502     2.70385973    -3.41333972     0.13595973
O       4.41703298     5.47835902     1.01206297     0.02824409    -0.74701425    -0.89575750
O       4.40919100     0.98503800     0.87083499     1.24408169     0.52419542    -0.31883157
O       1.53593602     5.31498301     0.99763099    -0.02611830     0.75574443     0.13442375
O       1.62298102     1.03052300     0.81650600    -2.02038287    -0.57432450    -1.37141382
O       4.36638500     8.30944001     3.79758402     1.73903183     2.84940659     0.68492542
O       4.58295100     3.51588598     3.75126799    -0.70717576    -0.57625899     0.10800257
O       1.84757501     8.41411899     3.68376201    -2.62320317    -0.58700981     0.35056105
O       1.47792501     3.62958897     3.74008701     0.17703466     0.03944022     0.30746369
O       3.02578397     5.94858799     3.31358099    -1.13064612    -0.10038979     0.05421302
O       2.78384302     1.27857997     3.04082298     2.55482388    -0.07167107     1.13176532
O       5.77383101     6.20996102     3.41150302     1.82841627    -1.29877782    -0.03474616
O       0.09160799     1.26377100     2.88483603    -1.32122510    -1.47205764     2.84792333
O       2.81666403     7.81503298     1.42063200     0.74587936     0.12456048     0.12063003
O       3.01756098     3.23639202     1.66884401     0.92521542     0.62417743    -2.06143337
O       0.00451700     7.82294000     1.49085101     0.02691252     0.78900552    -0.46219376
O       0.03134698     3.19435000     1.33901900    -0.52882289    -0.76233108     0.68613719
