# total energy = -19516.71189130 eV

CRYSTAL
PRIMVEC
        5.17600016     0.00000000     0.00000000
        0.00000000     5.50899976     0.00000000
        0.00000000     0.00000000     9.26300011
PRIMCOORD
23 1
Ti      2.00769801     3.19082700     3.39473000    -1.09034689     0.18465850     2.49482023
Ti      3.23769300     2.27093702     5.97342598     0.83346788     0.57832051    -2.71465837
Ti      4.43427702     2.08928899     1.52352099    -0.51548144     0.17478546    -2.78842052
Ti      0.82656402     3.43263698     7.72547698    -1.61384117    -0.00216667     2.30036608
Ti      1.98976398     0.21503499     1.45328499     1.69647774    -0.29710908    -2.51881454
Ti      3.19619498     5.22887100     7.79852001     0.62771939    -1.10470676     4.14570947
Ti      0.72410302     0.58152801     5.90413398    -1.31694627    -1.10925171    -3.56047886
Ti      4.56177100     4.86247502     3.39196098     0.19096002     0.64497355     2.99286983
O       1.64793998     1.94834300     4.90832902     0.64301360    -0.14670077    -1.25487467
O       3.55648499     3.46602500     4.42608599     0.30226594     0.10510751     0.48846196
O       4.80364702     2.96974902     9.16587100     0.88409883    -0.39644626     0.23064449
O       3.42993400     0.77606199     0.21721700    -0.39804831    -0.00932257     0.21647103
O       1.87737901     4.48657200     9.04258201    -0.53337503     0.14714275     0.24354578
O       4.28520699     0.66137102     4.84735600    -0.81520790    -0.07314483    -0.46531174
O       1.03547298     4.72760399     4.34288800     0.35309487     0.01842248     0.67050410
O       0.16129100     3.29067000     2.58464499     1.36469244    -0.31031401    -0.50968051
O       5.07800601     2.13450100     6.57053800    -0.84264878     1.04496613     1.67312081
O       2.80057503     1.77963902     2.39251100    -0.87260214    -0.53065095    -0.41366160
O       2.46289797     3.86276802     6.73308300     0.01159619    -1.12730368    -0.20654142
O       0.26620098     0.63830498     2.16905701     0.32291371    -0.00204223    -1.00570100
O       4.92252198     4.84397001     7.19960201     1.06747126     0.42203209    -0.43624206
O       2.23398902     0.96852798     7.03366298    -0.33295850     1.87856848     0.31208936
O       2.97181800     4.43246199     2.23640699     0.03368404    -0.08981792     0.10578242
