# total energy = -19516.67740942 eV

CRYSTAL
PRIMVEC
        5.17600016     0.00000000     0.00000000
        0.00000000     5.50899976     0.00000000
        0.00000000     0.00000000     9.26300011
PRIMCOORD
23 1
Ti      2.00240603     3.17162602     3.38130901    -0.69293081     0.35952135     2.93298393
Ti      3.27358900     2.31455700     5.92651601     0.94219499     0.48887179    -1.91984293
Ti      4.38464702     2.11601303     1.55716502     0.56736606    -0.11608844    -1.93649083
Ti      0.76927698     3.43727998     7.74769798    -1.71006372    -0.05209854     1.54621702
Ti      2.01564001     0.22205701     1.44713198     0.44114387    -0.53898981    -1.45944200
Ti      3.15539398     5.21032000     7.83014501     0.13185239    -0.15374148     1.68322319
Ti      0.69080502     0.53858401     5.89859302    -0.15840958     0.53836915    -3.69843454
Ti      4.57202000     4.85793098     3.42166200     0.75859450     0.09490717     2.84764925
O       1.85016798     1.97328498     4.79799001    -1.89846497    -1.31487756    -0.62658424
O       3.69276702     3.42291398     4.52375999     0.17368477     1.61023366    -1.29859527
O       4.73765100     2.99909402     9.17329901     0.31482321    -0.50353069     0.40394051
O       3.40576499     0.67570601     0.25474101     0.35521372     0.64950821    -0.37838528
O       1.78494000     4.49188299     8.96358903     0.07157105     0.64094283     1.57855045
O       4.35718901     0.67163298     4.78382701    -0.81073135     0.06577424    -0.27958443
O       1.07075799     4.65184099     4.33908602     0.26800469     0.84887342     1.39999602
O       0.27866802     3.30408602     2.56999001     0.07137616    -0.86677345    -1.39076601
O       5.05165001     2.31031601     6.49946003     0.89154758    -0.94750560     1.05297821
O       2.78267402     1.71453900     2.48909997    -0.13924637    -0.71401515    -1.47676738
O       2.36935298     3.73787198     6.77303398     0.99461517     0.32893626     0.12692410
O       0.26517601     0.59181199     2.19874100    -0.00545948     0.89896239    -1.53143446
O       5.00584602     4.93517202     7.10264197    -1.16077432    -0.21321421     1.11177344
O       2.23775300     1.05515001     6.94051201     0.32832717    -0.86625280     1.96294595
O       2.98493498     4.46093400     2.32493199     0.26576449    -0.23781299    -0.65085469
