# total energy = -4988.81129153 eV

CRYSTAL
PRIMVEC
        3.17548144     0.00000000     0.00000000
        0.24862006     4.96928783     0.00000000
       -0.00000137    -0.00006458     4.97706003
PRIMCOORD
6 1
Ti      1.71204994     2.48461146     2.48852990     0.00000000     0.00000000     0.00000000
Ti      0.00000000     0.00000000     0.00000000     0.00000000     0.00000000     0.00000000
O       1.63619275     0.96842830     0.96995562     0.10949664    -0.55271565    -0.56421543
O       1.78790708     4.00079462     4.00710412    -0.10949664     0.55271565     0.56421543
O       0.07585651     1.51615699     3.45848654    -0.10968099     0.55308332    -0.56441520
O       0.17276205     3.45306615     1.51857321     0.10968099    -0.55308332     0.56441520
