# total energy = -4989.53129840 eV

CRYSTAL
PRIMVEC
        3.07927522     0.00000000     0.00000000
        0.71966676     4.77078759     0.00000000
       -0.00000452    -0.00006263     4.83846618
PRIMCOORD
6 1
Ti      1.89946845     2.38536239     2.41923303     0.00000000     0.00000000     0.00000000
Ti      0.00000000     0.00000000     0.00000000     0.00000000     0.00000000     0.00000000
O       1.67988904     0.92974397     0.94294576    -0.16121388    -0.13354829    -0.20221194
O       2.11904786     3.84098081     3.89552025     0.16121388     0.13354829     0.20221194
O       0.21957744     1.45559304     3.36217983     0.16147794     0.13306826    -0.20183964
O       0.50008435     3.31513184     1.47628619    -0.16147794    -0.13306826     0.20183964
