# total energy = -19931.93190945 eV

CRYSTAL
PRIMVEC
        6.69483576     0.00000000     0.00000000
        0.00002356     3.83671610     0.00000000
        0.00000000     0.00000000    10.12872694
PRIMCOORD
24 1
Ti      2.42657001     2.27363453     3.75768559    -0.20878265     1.33954550    -0.53839614
Ti      4.26828947     1.56308189     6.37104177     0.20878265    -1.33954550     0.53839614
Ti      5.77387315     1.56308325     1.30663765    -0.20658410    -1.34016591     0.54005271
Ti      0.92098632     2.27363328     8.82208981     0.20658410     1.34016591    -0.54005271
Ti      2.42655833     0.35527653     1.30667825    -0.20878265     1.33954550     0.53839614
Ti      4.26830114     3.48143999     8.82204922     0.20878265    -1.33954550    -0.53839614
Ti      0.92097465     0.35527502     6.37100117     0.20658410     1.34016591     0.54005271
Ti      5.77388483     3.48144146     3.75772619    -0.20658410    -1.34016591    -0.54005271
O       2.11896615     1.35097302     5.16861199     2.83129934    -0.92300555     1.70397354
O       4.57589333     2.48574334     4.96011537    -2.83129934     0.92300555    -1.70397354
O       1.22850757     1.35098848     0.10428091    -2.83089979    -0.92283792     1.70311274
O       5.46635195     2.48572794    10.02444614     2.83089979     0.92283792    -1.70311274
O       4.57588165     0.56738529     0.10424805    -2.83129934     0.92300555     1.70397354
O       2.11897782     3.26933113    10.02447899     2.83129934    -0.92300555    -1.70397354
O       5.46634028     0.56736983     5.16864485     2.83089979     0.92283792     1.70311274
O       1.22851909     3.26934659     4.96008246    -2.83089979    -0.92283792    -1.70311274
O       0.24325319     2.33370826     2.73602193     0.44823061     0.04447033     1.37159200
O       6.45160629     1.50300817     7.39270543    -0.44823061    -0.04447033    -1.37159200
O       3.59067933     1.50297229     2.32837392     0.44669926    -0.04420294    -1.37179743
O       3.10418015     2.33374413     7.80035323    -0.44669926     0.04420294     1.37179743
O       0.24324151     0.41535015     2.32834159     0.44823061     0.04447033    -1.37159200
O       6.45161796     3.42136627     7.80038556    -0.44823061    -0.04447033     1.37159200
O       3.10416847     0.41538603     7.39273771    -0.44669926     0.04420294    -1.37179743
O       3.59069100     3.42133040     2.73598960     0.44669926    -0.04420294     1.37179743
