# total energy = -19073.73953912 eV

CRYSTAL
PRIMVEC
        7.60600008     0.00000000     0.00000000
        0.00000000     7.60600008     0.00000000
       -1.89786986    -1.89786986     4.85670466
PRIMCOORD
22 1
Ti      3.82976900     6.53720301     1.36411798     1.13712839     1.34783243    -0.61453039
Ti      3.67190400     2.81996900     1.16049301    -0.13691464    -1.23786759     0.92832594
Ti     -0.03321699     6.74087799     0.98353799    -0.43731344    -1.52961592     1.28357925
Ti     -0.17672298     2.80675899     1.00773600    -0.63471870     2.84958503     1.40014488
Ti      5.63902020     3.07486823     3.52566782    -0.63755180    -1.70892600    -0.53341977
Ti     -1.23178075    -0.70251778     3.90859583     0.25184788    -0.04738313    -3.11126121
Ti      1.76856323     2.75106922     3.71362380     0.55603289    -0.93219468    -0.25939432
Ti      1.88988622    -1.12914778     3.77315979    -0.50853560     0.51290750     1.42675607
O       3.84857898     4.70730999     0.84267201    -0.96925354    -0.57773301     0.34354785
O       3.96984799     0.86144299     0.91404098    -0.35383175    -1.27978276     0.05537593
O      -0.16651298     4.80575198     0.60765302     0.48466135     1.56131506     0.72389205
O       7.22315601     1.07700498     0.51346100    -0.97221983    -2.73029146     2.41949485
O       5.52184924     4.90751123     3.92628781     0.98069599     0.32545807     0.23964104
O       5.58396423     1.02541020     3.95499181     0.33872677    -0.29627913    -0.57790681
O       2.10361721     4.51326725     4.28489483    -0.84129278     2.88417281    -1.30526086
O       2.16470924     0.83140022     4.16025279    -0.83404586    -0.06779436    -1.53404696
O       3.59386824     2.87813722     3.10936181    -0.06217958    -0.14766005    -0.16637306
O      -0.16338776     2.61362623     3.12655583     2.11590350     1.07390262     0.41707500
O       5.92205600     6.69524598     2.11047000    -0.00927140     0.07432239    -1.16364907
O       5.58993398     3.01940199     1.57949799    -0.05540112    -0.24555716     0.30481313
O       1.99348198     6.63459602     1.91306699    -0.42945409    -0.11785838    -0.97077409
O       1.68800002     2.59388998     1.16650701     1.01698738     0.28944796     0.69397005
