# total energy = -19518.60311748 eV

CRYSTAL
PRIMVEC
        7.60600008     0.00000000     0.00000000
        0.00000000     7.60600008     0.00000000
       -1.89786986    -1.89786986     4.85670466
PRIMCOORD
23 1
Ti      3.78949200     6.60219598     1.24811598     1.10281006     1.02800456     0.63010306
Ti      3.79812801     2.84670198     1.04937600     0.29559573    -0.84973191     1.03129017
Ti      0.01261400     6.59056599     1.25134301    -0.86791502     2.29291168     0.60699217
Ti      0.04810798     2.89583598     1.02567098    -0.30112977    -1.75640221     1.44090125
Ti      5.56265421     2.89369122     3.68693681    -0.17376756    -0.04119680    -1.66565740
Ti      5.73397820    -1.01952675     3.66225583    -0.69712351     0.09740654     0.15467711
Ti      1.91186121     2.93704121     3.68481280     0.85184356    -1.30802736    -0.71547143
Ti      1.90728425    -0.99157080     3.64660382     0.39882736     0.85474994     0.09068079
O       3.80254199     4.71531400     0.85889098    -0.67108800     0.82542084    -0.34101017
O       4.10466902     0.90143402     0.67142401    -0.31882128     0.44110659     0.78302410
O       0.11730399     4.84294701     0.78873499     0.95392411    -2.22143421     0.16042687
O      -0.19478501     0.92370201     0.83113500     0.74588193     0.53367765    -0.32176931
O       5.49391525     4.72686621     4.15968980     0.78773205     0.58509999    -1.04787816
O       5.78420125     0.91493921     4.02947081     0.46754834     1.09922543    -0.33452199
O       1.66783720     4.74840621     4.06591080     0.03215346    -0.51998164    -0.40631415
O       1.76297824     0.99416525     4.04104783    -0.28451118    -0.04669151     0.14178148
O       3.79896321     2.73654521     3.45908881    -0.57389152     0.26048087    -1.10571335
O       3.88314124    -0.77801375     3.26138882    -1.15700611    -0.59007894    -0.62968500
O       0.01848321    -0.93398176     3.21173882    -0.25615447    -0.33634078     0.51725961
O       5.67990898     6.42880603     1.63958999     0.42423989     0.22566966     0.34154367
O       5.81709702     3.05886798     1.69301202     0.10974475    -0.44151231     0.63991233
O       1.95149700     6.87576802     1.70787698    -0.17147208    -0.68185758    -0.68585179
O       1.97513498     2.68248902     1.54902701    -0.69742125     0.54950203     0.71527988
