# total energy = -19074.37928884 eV

CRYSTAL
PRIMVEC
        5.17600016     0.00000000     0.00000000
        0.00000000     5.50899976     0.00000000
        0.00000000     0.00000000     9.26300011
PRIMCOORD
22 1
Ti      1.82235500     3.35485999     3.31231700     0.13002331     1.30077762    -0.12280699
Ti      3.56497802     2.34311399     6.02030098    -0.20794319    -0.44149380    -0.77107644
Ti      4.37382301     2.24129098     1.22191800     0.52346754    -0.25459253    -1.38801724
Ti      0.66576499     3.20501297     8.08873700     1.06283428     1.27594590     1.01251108
Ti      1.86947199     0.54962900     1.27554101    -0.82199536     0.06728399    -2.10929268
Ti      3.24447198     4.99842002     7.96057202     0.16912054     0.71234111     1.11969013
Ti      0.58077500     0.13769801     6.03220800     1.52246439     2.06358102    -1.54305765
Ti      4.37926301     4.96120198     3.38969202     0.88102302     0.46954635     0.64440097
O       3.39576301     3.50803998     4.51520499     0.14313414    -0.18140065     0.82476289
O       0.92736101     2.11595498     0.26425403     0.03105277    -1.10154148    -0.23970301
O       4.32130201     3.78348102     9.09151699    -0.04698050    -0.68505475     0.15597475
O       3.44185202     0.83437499     0.08834699     0.65611029     1.30707014    -0.05032036
O       1.67203501     4.83877201     8.98336099    -1.70180276    -0.03075092     0.30972009
O       4.61742399     0.95659202     4.79549700    -1.79418176    -0.79324630    -0.74893717
O       1.00895199     4.85726400     4.31800698    -0.18732370    -2.01642388     0.93822932
O       0.12561001     3.45334501     2.33794901    -0.04531957     0.30139691     1.65475952
O       0.17013599     2.19592900     6.56795101     0.18276694    -0.51748355     1.14017232
O       2.76239600     1.99196298     2.30243900    -0.19562888     0.10736365     0.18969452
O       2.55005902     3.32470001     7.40122500    -0.57597514    -0.85388013    -2.08718247
O       0.04415799     0.61157502     2.04066200     0.27654590     0.21836130     0.41527471
O       2.48859001     0.69146602     6.44299401    -0.47961299    -0.39688823     0.51826234
O       2.68347101     4.78056701     2.35682699     0.47822099    -0.55091202     0.13694086
