# total energy = -19922.29164869 eV

CRYSTAL
PRIMVEC
        6.30620351     0.00000000     0.00000000
        1.00115889     6.63661797     0.00000000
        0.00000000     0.00000000    11.31877073
PRIMCOORD
24 1
Ti      2.87898127     3.93285360     4.19918325    -0.11635223    -1.55539689     0.73058875
Ti      4.42838105     2.70376419     7.11958774     0.11635223     1.55539689    -0.73058875
Ti      5.84656656     2.70376643     1.46015698     0.10786553     0.09366918    -0.41445144
Ti      1.46079579     3.93285161     9.85861413    -0.10786553    -0.09366918     0.41445144
Ti      2.37840196     0.61454473     1.46020237    -0.11635223    -1.55539689    -0.73058875
Ti      4.92896037     6.02207325     9.85856874     0.11635223     1.55539689     0.73058875
Ti      0.96021645     0.61454230     7.11954234    -0.10786553    -0.09366918    -0.41445144
Ti      6.34714589     6.02207568     4.19922864     0.10786553     0.09366918     0.41445144
O       2.34847827     2.33686593     5.77588212     1.68787097     1.79015387    -0.40072277
O       4.95888406     4.29975186     5.54288880    -1.68787097    -1.79015387     0.40072277
O       1.50971449     2.33689276     0.11653308    -1.04315890     0.64220499     0.54905028
O       5.79764790     4.29972509    11.20223758     1.04315890    -0.64220499    -0.54905028
O       4.45830474     0.98144280     0.11649637    -1.68787097    -1.79015387    -0.40072277
O       2.84905759     5.65517499    11.20227429     1.68787097     1.79015387     0.40072277
O       5.29706858     0.98141603     5.77591889     1.04315890    -0.64220499     0.54905028
O       2.01029369     5.65520183     5.54285209    -1.04315890     0.64220499    -0.54905028
O       0.83808053     4.03676725     3.05748241     0.46830682     0.82081445     1.13615111
O       6.46928178     2.59985047     8.26128858    -0.46830682    -0.82081445    -1.13615111
O       3.77442113     2.59978875     2.60193909     0.59660260     1.18502137     0.38215477
O       3.53294118     4.03682898     8.71683170    -0.59660260    -1.18502137    -0.38215477
O       0.33750121     0.71845819     2.60190289     0.46830682     0.82081445    -1.13615111
O       6.96986111     5.91815953     8.71686783    -0.46830682    -0.82081445     1.13615111
O       3.03236186     0.71851992     8.26132465    -0.59660260    -1.18502137     0.38215477
O       4.27500046     5.91809781     3.05744627     0.59660260     1.18502137    -0.38215477
