# total energy = -19076.94467695 eV

CRYSTAL
PRIMVEC
        7.60600008     0.00000000     0.00000000
        0.00000000     7.60600008     0.00000000
       -1.89786986    -1.89786986     4.85670466
PRIMCOORD
22 1
Ti      3.80379502     6.57253898     1.13148600    -0.56214877     0.45827565     0.61493380
Ti      3.78418800     2.85086697     1.22193700    -0.09854862    -0.19298065    -0.57982177
Ti     -0.00135898     6.68956600     1.16736898     0.47120137     0.26322861    -0.02333483
Ti     -0.03213302     2.91051700     1.21010401     0.28161895    -0.66717863     0.31770028
Ti      5.70936823     2.86871924     3.65617680     0.37999016    -0.13134794    -0.40545335
Ti      5.75057325    -0.94300778     3.66701080    -0.18607389    -0.12594682    -0.22942399
Ti      1.92481224     2.85101620     3.62971481    -0.39959997    -0.56709249    -0.39408727
Ti      1.89548920    -0.98302675     3.73996180    -0.10559113     0.64231117    -2.38847525
O       3.68566700     4.74706300     0.72864098     0.47346805    -0.41925195     0.51714031
O       3.74676702     0.91205398     0.69741598     0.24016092     0.26157976     2.43420465
O       0.02639801     4.77194798     0.80916800    -0.12399047    -0.35846334    -0.48200412
O      -0.03715301     0.96953099     0.84762400     0.05337535    -0.54470255    -0.18716378
O       5.72996624     4.74564824     3.98730179     0.11593520     0.33691157     0.50546956
O       5.72689622     0.90358725     3.93210379    -0.13135385     0.72481765     0.81816930
O       1.87174523     4.72661924     4.06954080     0.13335160     0.20688569    -0.98788582
O       1.84111920     0.93208820     4.10967281     0.46502429     0.08843647    -0.85269434
O       3.83104321     2.97348925     3.25993580    -0.18772814    -0.56894446    -0.24396461
O       0.03730022     2.82036525     3.25372279    -0.58618500     0.26851557    -0.91916252
O       5.62540600     6.49206599     1.75184102     0.74055563     0.55899969     0.19384248
O       5.69916199     2.85126798     1.55491602     0.20709369     0.13834443     0.56451111
O       1.93637000     6.65307002     1.67542799    -0.68444051     0.01333632     1.06308907
O       1.93149601     2.91020902     1.57180799    -0.49611459    -0.38573375     0.66441110
