# total energy = -19930.27473828 eV

CRYSTAL
PRIMVEC
        5.97525577     0.00000000     0.00000000
        2.99272150     5.61129204     0.00000000
        0.00000000     0.00000000    11.06674581
PRIMCOORD
24 1
Ti      3.93922684     3.32524647     4.10568378     1.01370665    -3.18829303     0.66539197
Ti      5.02875058     2.28604571     6.96106214    -1.01370665     3.18829303    -0.66539197
Ti      6.37251089     2.28604771     1.42764497    -2.53641761    -0.95778822     0.86565862
Ti      2.59546672     3.32524473     9.63910102     2.53641761     0.95778822    -0.86565862
Ti      2.44286632     0.51960064     1.42768936     1.01370665    -3.18829303    -0.66539197
Ti      6.52511122     5.09169176     9.63905668    -1.01370665     3.18829303     0.66539197
Ti      1.09910592     0.51959848     6.96101775     2.53641761     0.95778822     0.86565862
Ti      7.86887161     5.09169387     4.10572811    -2.53641761    -0.95778822    -0.86565862
O       2.94499435     1.97583136     5.64727570     1.61371982     2.03897401    -1.14970854
O       6.02298314     3.63546087     5.41947023    -1.61371982    -2.03897401     1.14970854
O       2.15025688     1.97585395     0.11393836     0.77027965    -1.28704407     1.48654864
O       6.81772069     3.63543833    10.95280721    -0.77027965     1.28704407    -1.48654864
O       4.52662251     0.82981482     0.11390244    -1.61371982    -2.03897401    -1.14970854
O       4.44135497     4.78147735    10.95284313     1.61371982     2.03897401     1.14970854
O       5.32136005     0.82979227     5.64731156    -0.77027965     1.28704407     1.48654864
O       3.64661738     4.78149997     5.41943431     0.77027965    -1.28704407    -1.48654864
O       2.03743770     3.41310587     2.98940413     0.68201468     2.66002678     2.49538870
O       6.93053979     2.19818636     8.07734173    -0.68201468    -2.66002678    -2.49538870
O       4.37708550     2.19813395     2.54400397     1.01323974     1.64632990     1.25046497
O       4.59089200     3.41315828     8.52274171    -1.01323974    -1.64632990    -1.25046497
O       0.54107707     0.60745982     2.54396865     0.68201468     2.66002678    -2.49538870
O       8.42690041     5.00383235     8.52277704    -0.68201468    -2.66002678     2.49538870
O       3.09453136     0.60751223     8.07737700    -1.01323974    -1.64632990     1.25046497
O       5.87344612     5.00377995     2.98936881     1.01323974     1.64632990    -1.25046497
