# total energy = -4987.72568703 eV

CRYSTAL
PRIMVEC
        4.14699555     0.00000000     0.00000000
        0.82117861     4.06487857     0.00000000
       -2.48412486    -2.03247019     5.31941825
PRIMCOORD
6 1
Ti      0.61574101     3.04881437     1.32985471    -0.00034273     0.00034273     0.00000000
Ti      1.86830829    -1.01640600     3.98956372     0.00034273    -0.00034273     0.00000000
O       0.20533810     1.01621370     0.86648983    -0.00056076    -0.00147993    -1.13041781
O       2.27871107     1.01619457     4.45292865     0.00056076     0.00147993     1.13041781
O      -0.20531089    -1.01619143     3.52619884    -0.00147993    -0.00056076    -1.13041781
O       2.68935994     3.04859960     1.79321958     0.00147993     0.00056076     1.13041781
