# total energy = -4989.82690383 eV

CRYSTAL
PRIMVEC
        3.89347278     0.00000000     0.00000000
       -0.00000786     3.52266624     0.00000000
       -1.94676386    -1.76136848     4.74418198
PRIMCOORD
6 1
Ti     -0.00017020     2.64213204     1.18604526    -0.00074819    -0.00315372     2.89171386
Ti      1.94687094    -0.88083418     3.55813615     0.00074819     0.00315372    -2.89171386
O       0.00003956     0.88065993     0.77278840     0.00048003     0.00214327     0.03412267
O       1.94666103     0.88063783     3.97139312    -0.00048003    -0.00214327    -0.03412267
O      -0.00001996    -0.88064761     3.14487929    -0.00021083    -0.00010696     0.38884582
O       1.94672055     2.64194532     1.59930223     0.00021083     0.00010696    -0.38884582
