# total energy = -39040.35041503 eV

CRYSTAL
PRIMVEC
        7.60629642    -0.00000847    -0.00005503
       -0.00000847     7.60629642    -0.00005503
       -3.80314186    -3.80314186     9.70738094
PRIMCOORD
46 1
Ti      1.91432411     4.75391054     6.22434750     0.02825515     0.00056076    -0.17875678
Ti      3.80733927     6.63566607     1.19784301    -0.03414555    -0.04901527    -0.08582346
Ti      1.82265550     0.95087471     5.98204568    -0.08739106    -0.00006788    -0.15310462
Ti      3.80744387     2.87248659     1.19781740    -0.03461837     0.04876510    -0.08586151
Ti     -1.90833408     4.75403727     6.06343198    -0.01928508     0.00015272     0.14896952
Ti     -0.00550102     6.67810542     1.23372054     0.02308954    -0.08162638    -0.03063496
Ti     -1.81934744     0.95085142     6.01883319     0.04979072    -0.00007842     0.09341233
Ti     -0.00556974     2.82989797     1.23371077     0.02369992     0.08135282    -0.03054780
Ti      3.80483997     0.95074750     8.62994924    -0.07500219     0.00019643    -0.09056637
Ti      5.69277050     2.86810734     3.64114083    -0.01991294    -0.00620125    -0.05890348
Ti      3.84347027    -2.85243973     8.51748906    -0.14340822     0.00029105     0.10807302
Ti      5.69270403    -0.96690913     3.64110571    -0.01957124     0.00667099    -0.05869625
Ti      0.01463408     0.95057836     8.43673583     0.03445562     0.00019798    -0.16085881
Ti      1.90974202     2.78362639     3.59233565     0.01919381    -0.05521395     0.03257512
Ti     -0.03642626    -2.85263004     8.52103920     0.14837199     0.00025788    -0.01538060
Ti      1.90969278    -0.88187506     3.59252554     0.01921926     0.05399164     0.03181947
O       1.99136660     2.91434315     5.59896748     0.00837897     0.02543310     0.05688825
O       3.82282326     4.75394689     0.75115848     0.05613286     0.00019078    -0.07348576
O       1.99138851    -1.01278613     5.59894172     0.00819179    -0.02490191     0.05695484
O       3.78065588     0.95077204     0.78938592     0.00689467    -0.00006171     0.05392582
O      -2.01486352     2.82925150     5.66984433    -0.02819319    -0.05304651    -0.05059316
O      -0.02129854     4.75393062     0.83059150    -0.04707846     0.00026431     0.08214061
O      -2.01485689    -0.92767882     5.66987051    -0.02815385     0.05308713    -0.05058236
O       0.02019492     0.95079777     0.84325253    -0.00387311    -0.00021520     0.13310580
O       3.79858840     2.86838132     8.95098516     0.00445675    -0.00193681     0.02861228
O       5.72185708     4.75389310     4.10125152     0.03177782     0.00004242    -0.01585471
O       3.79858648    -0.96679615     8.95104093     0.00432511     0.00193424     0.02836493
O       5.66360140     0.95075584     4.01510732    -0.01537366    -0.00009333     0.04761582
O       0.00572480     2.83351796     8.87972892     0.00390474    -0.01709939     0.00978562
O       0.00574148    -0.93193490     8.87972688     0.00412122     0.01712278     0.00974603
O       1.95270778     0.95089580     4.00678305    -0.00420350    -0.00149150     0.02825721
O       2.01052509     0.95087031     7.97363373     0.03502307     0.00001028     0.01218935
O       3.78400560     2.98507138     3.21926029    -0.03609959     0.06486664    -0.00471978
O       1.89952249    -2.85233354     8.12656453    -0.02176954    -0.00012881    -0.00069086
O       3.78396376    -1.08344003     3.21930210    -0.03620423    -0.06470441    -0.00459919
O      -2.00404957     0.95087729     7.99030439     0.05103667     0.00002571     0.06514946
O       0.01736592     2.93355071     3.26950971     0.03878896    -0.00986867     0.00298994
O      -1.90075003    -2.85230912     8.09797532     0.01750999    -0.00000823     0.04755206
O       0.01739259    -1.03198052     3.26952483     0.03883807     0.00993346     0.00321517
O       3.81628791     4.75392918     6.52898440    -0.02682022     0.00006222     0.04760322
O       5.70166076     6.66734443     1.66188357    -0.01453265     0.03068021    -0.02536986
O       5.70166886     2.84038163     1.66189168    -0.01450463    -0.03051592    -0.02546627
O      -0.01709853     4.75387624     6.48768381     0.02154997     0.00007379    -0.03471556
O       1.90190648     6.61594166     1.60843851     0.00751071    -0.01564080     0.09237386
O       0.00985107     0.95076074     6.43762981     0.01805044    -0.00009205    -0.07912187
O       1.90192077     2.89196266     1.60836893     0.00757267     0.01584391     0.09301483
