# total energy = -19517.74810820 eV

CRYSTAL
PRIMVEC
        5.93400000     0.00000000     0.00000000
        0.00000000     9.29699974     0.00000000
        0.00000000     0.00000000     4.64899994
PRIMCOORD
23 1
Ti      4.54961702     7.04279398     2.33517501    -0.47929417    -0.56499267    -0.71295174
Ti      4.45825599     2.29616401     2.34653100    -0.37233419    -0.10775703     0.16479698
Ti      1.47472698     7.04969800     2.35437499     0.24841751     0.46534465    -0.47558741
Ti      1.41661999     2.30046098     2.22653402     0.42209791    -0.35622210     0.60349444
Ti      2.95603402     4.42366500     4.64896698     0.36656514     0.75054643     0.97661590
Ti      2.94857701     0.07457298     0.02884101    -0.57144640    -0.44454262    -0.29175681
Ti      0.01915299     4.67424900     0.04063600    -0.07560974     0.66800422     0.34400190
Ti      5.84532699     0.04507802     4.64020698     1.00925941    -0.40048392    -0.78565280
O       4.37100599     5.66969099     0.89445899     0.34235794    -0.94157407    -0.25085029
O       4.52112098     0.99083900     0.86988601    -0.57118106    -0.47403909    -0.30455268
O       1.53466202     5.46807102     0.97758602     0.07997291     0.78148144    -0.11346334
O       1.39828003     0.93300098     0.83445098     0.60793063     0.41796048     0.63857176
O       4.40614601     8.38328098     3.67948198     0.03076609     0.09766005     0.99988928
O       4.46841001     3.64803599     3.65782402     0.08624332     1.49071974     0.80743751
O       1.57384400     8.47663102     3.76524002    -0.47262550    -1.45339579    -0.66652995
O       1.53262400     3.62612397     3.85254998    -1.02892553     0.31501065    -1.61930065
O       2.98437601     1.50256599     3.25098398    -0.15121203    -0.70777200    -0.20380551
O       0.10381500     6.02189603     3.33042301    -0.15906804     0.67763094    -0.79935781
O       0.00904999     1.26109098     3.10661998    -0.19896721     0.83971181     0.18350973
O       2.97694202     7.94132298     1.43333500    -0.09107159    -0.66773734     0.73993163
O       2.90966799     3.19496099     1.31827700     0.74389164    -0.64949330     1.07831258
O       0.01881500     7.89436702     1.54408799     0.41654535     0.62733295    -1.21556095
O       0.01785402     3.25248203     1.34502998    -0.18231262    -0.36339343     0.90280799
