# total energy = -19068.80986002 eV

CRYSTAL
PRIMVEC
        5.17600016     0.00000000     0.00000000
        0.00000000     5.50899976     0.00000000
        0.00000000     0.00000000     9.26300011
PRIMCOORD
22 1
Ti      1.82515498     3.44951101     3.16958398    -0.25038569    -0.41960702    -1.91907880
Ti      3.54835799     2.57674998     5.95533902     0.53548411     1.38758067     0.57949370
Ti      4.41424797     2.26628100     1.49571500     0.28035782    -0.58724789     0.94704023
Ti      1.18386598     2.11143601     7.87423199    -3.97734457     3.39635475     1.24581744
Ti      1.75528798     0.48065101     1.25248402     0.11928638     1.58456787     0.59535947
Ti      2.99780399     0.36300702     7.83117098     6.63817302    -2.20780145     0.33508994
Ti      0.68743400     4.83445699     6.41057301     2.18128976     3.26349937    -2.02122413
Ti      4.47889100     5.27663300     3.81706901    -0.52601602    -2.46093976    -0.45443777
O       3.42171302     3.36107301     4.10981198     0.52317341     2.23612884     1.87524379
O       1.19443301     2.30320202     0.37349299    -1.71957937     0.45661035     1.03373606
O       5.11706802     3.58558302     7.17198002    -3.73445185    -1.75965517     1.27837328
O       3.64023502     0.89026002     0.34195698    -0.26697214     0.20460975    -0.61715780
O       1.53198899     0.12601398     8.69960901    -5.11145628    -1.80355986     0.67210873
O       4.18007498     1.34629799     4.77374703     1.00363640    -3.21742544    -0.53674241
O       1.03638798     4.32123401     4.55533102    -1.70739722     1.68588145     1.98479725
O       0.06999200     3.98535600     2.20638698     0.05887134    -2.60920736    -0.40203918
O       4.40672201     1.47509100     7.30110302     2.52820550    -1.39879685    -0.07150472
O       2.61683098     1.87177000     2.27097899     0.47970324     0.64483086     0.99025381
O       2.24415298     3.63865198     7.01457799     1.44355438     1.22206584    -0.17344437
O       0.03497200     0.78876801     2.37566702     1.22025630     2.30245947    -0.37485052
O       2.06883799     1.28846500     6.55785701    -0.50634836    -2.33917998    -4.99478343
O       2.65444400     4.74724498     2.24319702     0.78795985     0.41883157     0.02794996
