# total energy = -19934.26002221 eV

CRYSTAL
PRIMVEC
        6.01870885     0.00000000     0.00000000
        1.87946074     6.12380237     0.00000000
        0.00000000     0.00000000    10.89818720
PRIMCOORD
24 1
Ti      3.29525914     3.62895964     4.04314972     0.08055989    -2.23005127     0.83216176
Ti      4.60291035     2.49484286     6.85503754    -0.08055989     2.23005127    -0.83216176
Ti      5.95644225     2.49484497     1.40590037    -0.54783287    -0.71140240     0.09520001
Ti      1.94172734     3.62895777     9.49228702     0.54783287     0.71140240    -0.09520001
Ti      2.35552891     0.56705856     1.40594406     0.08055989    -2.23005127    -0.83216176
Ti      5.54264061     5.55674413     9.49224333    -0.08055989     2.23005127     0.83216176
Ti      1.00199699     0.56705627     6.85499385     0.54783287     0.71140240     0.09520001
Ti      6.89617253     5.55674641     4.04319342    -0.54783287    -0.71140240    -0.09520001
O       2.56674940     2.15629496     5.56126152     1.75203159     2.06166786    -0.74543790
O       5.33142010     3.96750761     5.33692575    -1.75203159    -2.06166786     0.74543790
O       1.76622791     2.15631967     0.11220297    -0.47711105    -0.24570602     1.14359086
O       6.13194165     3.96748295    10.78598400     0.47711105     0.24570602    -1.14359086
O       4.39168984     0.90560634     0.11216761    -1.75203159    -2.06166786    -0.74543790
O       3.50647966     5.21819622    10.78601935     1.75203159     2.06166786     0.74543790
O       5.19221140     0.90558169     5.56129687     0.47711105     0.24570602     1.14359086
O       2.70595805     5.21822095     5.33689039    -0.47711105    -0.24570602    -1.14359086
O       1.36186818     3.72484379     2.94387225     0.48803850     1.82987023     1.81116596
O       6.53630132     2.39895878     7.95431501    -0.48803850    -1.82987023    -1.81116596
O       3.96428862     2.39890168     2.50525604     0.85768434     1.61112917     0.78961256
O       3.93388088     3.72490089     8.39293104    -0.85768434    -1.61112917    -0.78961256
O       0.42213786     0.66294254     2.50522123     0.48803850     1.82987023    -1.81116596
O       7.47603158     5.46086004     8.39296585    -0.48803850    -1.82987023     1.81116596
O       2.99415062     0.66299963     7.95434976    -0.85768434    -1.61112917     0.78961256
O       4.90401887     5.46080294     2.94383744     0.85768434     1.61112917    -0.78961256
