# total energy = -39034.26190761 eV

CRYSTAL
PRIMVEC
        5.93200024     0.00000000     0.00000000
        0.00000000     9.29399984     0.00000000
        0.00000000     0.00000000     9.29399984
PRIMCOORD
46 1
Ti      4.34251398     6.86867398     6.86689700     1.64439515     0.89423053     1.40327494
Ti      4.43037999     6.88192500     2.47251302    -0.37167598     0.79537003    -0.88105259
Ti      4.36677601     2.33485200     7.07233102     0.89664993     0.48241678    -0.46364669
Ti      4.38440502     2.50271697     2.11253300     0.10797480    -0.56395652     0.94231763
Ti      1.44468702     6.93877800     6.94284097    -1.77640180     0.04548206     1.87955244
Ti      1.43298098     6.99143199     2.25668501     0.73430811     1.23216488     0.06482859
Ti      1.43848898     2.31982998     7.01767399    -1.20825901     0.79591510     0.01550839
Ti      1.50115701     2.12965903     2.51229201     0.34530957     0.22170245    -0.37141682
Ti      3.02020602     4.64304501     4.57152898    -0.53732656    -0.20143212     0.95541843
Ti      2.99940602     4.83938099     9.19124902    -0.75150108    -0.19599115    -0.05394511
Ti      3.02431302     9.28873701     4.84879299    -1.78466044    -0.17047063    -2.32539526
Ti      3.01831199     0.02112100     0.11559602    -0.00002777    -1.94831019    -1.77921125
Ti      0.07162001     4.66688598     4.49319598     0.21712897    -0.77978785     1.33982112
Ti      0.01579398     4.65754600     9.27492400     0.46905347     0.24055739    -0.41010345
Ti      5.88485801     9.23701798     4.84719402     0.90752082    -1.39455350    -0.64668282
Ti      5.92115502     9.24295101     0.15474402     0.44696794    -1.71724944    -2.90564461
O       4.57380597     5.72909601     5.34792302    -0.91574347    -0.76220279    -0.37267563
O       4.46267198     5.55214999     0.85096099    -0.05574694    -0.45028723     0.56291676
O       4.36636198     0.75483399     5.87517301     0.56641989     0.02428022    -1.40474099
O       4.61304600     1.00900698     0.83223902    -1.35008934     0.60281927     0.90607560
O       1.46796701     5.62692098     5.46059899    -0.05247701    -0.45331805    -0.25185842
O       1.57882001     5.71301198     0.84633598    -0.54170850    -1.55991895    -1.12742838
O       1.39885101     0.95456601     5.50366502     0.69039776     0.47583115    -0.00298608
O       1.54193498     0.78323398     0.90444197    -0.65743492     1.68114496     1.95448213
O       4.54779199     8.20147202     8.46266201    -0.29828793     2.08214465     0.04705943
O       4.49152500     8.45257700     3.64244899     0.09496013    -0.20633368     1.37052962
O       4.42588400     3.74045298     8.33845501     0.44910504     0.44208438     1.31495520
O       4.36833100     3.83013398     3.59727799     0.56463760    -0.93760685    -0.30478228
O       1.58349699     8.41112798     8.31080301    -0.23974672    -0.24382603     0.35874693
O       1.52598801     8.42766900     3.74804398    -1.05871485     0.02467129    -0.08855885
O       1.53373898     3.97506901     8.14800401    -0.43552035    -0.64457992     1.63451131
O       1.59675298     3.74761302     3.61067602    -0.14459478    -1.08700317     0.22872439
O       3.00707999     6.17488900     7.98230602    -0.76537836    -0.14154622    -1.27709698
O       2.84091098     5.99009099     3.04523399     1.30111649     0.17786538     1.22315779
O       2.95803198     1.56992301     8.00794000    -0.25504427    -0.42594531    -0.09395997
O       3.13402602     1.31400199     3.15528799    -0.28513725     1.35394343    -0.10135498
O       5.76166401     6.07480999     7.86177701     0.89638383    -0.74338847    -0.18722806
O       0.07997001     5.77487000     2.90932899    -0.70583699     1.24973761     1.15759026
O       0.04933901     1.33804600     7.92310997     0.26498827     1.39523870    -0.73570730
O       2.76454202     7.80439800     6.06711301     1.64990091     1.15138825    -1.17653364
O       3.04067899     7.92950402     1.36184501    -0.04774360    -0.72911525     1.14406523
O       2.98589999     3.21410498     6.01689398     0.48587080     0.24137114    -0.44005758
O       5.80814901     7.86560201     6.03727799     1.14419712     0.30961287    -0.03354417
O       5.84336300     7.79494298     1.44653401     0.26682121     0.57460269     0.14422840
O       0.04835399     3.34094702     6.06319101    -0.40581793    -0.86154948    -0.46124425
O       0.08291398     3.22400398     1.52410800     0.50076855    -0.27620266    -0.75090870
