# total energy = -19516.42974939 eV

CRYSTAL
PRIMVEC
        5.17600016     0.00000000     0.00000000
        0.00000000     5.50899976     0.00000000
        0.00000000     0.00000000     9.26300011
PRIMCOORD
23 1
Ti      1.90183700     3.18499499     3.48032601     0.61929902     0.22489782     0.50900740
Ti      3.33009301     2.26247802     5.89221299     1.09927068     0.64603259    -1.32551267
Ti      4.32743100     2.16762199     1.65478600     0.45303472    -1.47240911    -3.91303046
Ti      0.86790599     3.37511499     7.85681602    -1.44855080     0.73992854     1.17564070
Ti      1.83376200     0.24233799     1.27020701     2.45182931    -1.03931356    -1.37291946
Ti      3.45041099     5.16939899     7.89159800    -0.80683304     2.04018037     2.29946337
Ti      0.76317498     0.48725302     5.77329998    -1.11785565     0.67524830    -1.57869649
Ti      4.58644299     4.86686799     3.35941700    -1.99498396     1.78569866     1.86617499
O       1.68633099     1.98378899     4.83662498    -0.26059631    -0.33256872    -0.09665989
O       3.55576499     3.54609100     4.48484599    -0.42946669    -0.41302731     1.00940133
O       4.85764300     3.05460498     0.00242501    -0.06452880    -0.81886349     1.12417208
O       3.52452401     0.62992403     0.26669300     0.08133379    -0.28249544    -1.09713101
O       1.40516499     4.91315501     8.94786500     1.21621195     0.05058802     0.85376083
O       4.45360701     0.78165200     4.58637901    -1.55410620     1.15947051     0.87145980
O       0.94323299     4.68756702     4.41497998     1.62644704    -0.67550464     1.21720645
O       0.07215797     3.26825997     2.73719801     1.54567323    -1.13004037    -1.00390277
O       5.03537998     2.15423799     6.77662100     0.22858067    -0.56140495    -0.17512947
O       2.56955502     1.87329598     2.03324499    -1.27847869     1.92865924     1.26777570
O       2.70377501     3.69676300     7.18948202    -1.06287387    -3.82376044    -0.75213074
O       0.23109599     0.56928799     2.07997098    -1.37910708     1.06470784    -0.12121393
O       5.06074398     4.85494298     7.09256099     0.75177979    -0.31144684    -0.85733287
O       2.48541298     0.61715101     6.60500401     0.75766607     0.72178914     1.13179026
O       2.70067102     4.70149999     2.51221999     0.56625457    -0.17636617    -1.03219263
