# total energy = -39040.27056904 eV

CRYSTAL
PRIMVEC
        7.60629642    -0.00000847    -0.00005503
       -0.00000847     7.60629642    -0.00005503
       -3.80314186    -3.80314186     9.70738094
PRIMCOORD
46 1
Ti      1.89574235     4.82786526     6.07621544    -0.03499967    -0.19856303     0.16550146
Ti      3.79731133     6.72952948     1.22258913    -0.03500918    -0.19833883     0.16483400
Ti      1.90361536     0.87469005     6.08060848     0.16571563     0.17580413     0.04723941
Ti      3.80519546     2.77635167     1.22683034     0.16559273     0.17521020     0.04806679
Ti     -1.89509253     4.74802318     6.06260121     0.03632224    -0.02056369     0.04936623
Ti      0.00647672     6.64959300     1.20889657     0.03632147    -0.02041945     0.04928215
Ti     -1.90091504     0.95730540     6.06756255    -0.14032084     0.02373952    -0.07126381
Ti      0.00066221     2.85887341     1.21386682    -0.14032623     0.02361919    -0.07110697
Ti      3.80186309     0.95154008     8.49501325     0.02176722     0.02228942     0.02423806
Ti      5.70341154     2.85310900     3.64131573     0.02189784     0.02261158     0.02373643
Ti      3.80212647    -2.85336957     8.49874403     0.03011174    -0.02187444    -0.03839327
Ti      5.70372369    -0.95180093     3.64508928     0.02989808    -0.02224031    -0.03877302
Ti      0.00198006     0.95097685     8.43938226    -0.02227270     0.02770288    -0.27322841
Ti      1.90357384     2.85249248     3.58567234    -0.02233518     0.02750927    -0.27335773
Ti      0.00283206    -2.85243520     8.53323551    -0.01013452    -0.01268043    -0.14309506
Ti      1.90437670    -0.95082567     3.67959375    -0.00991983    -0.01224231    -0.14344164
O       1.90048829    -0.95082155     5.62820412    -0.02321244    -0.00752716     0.12273165
O       3.80206767     0.95087791     0.77449772    -0.02317208    -0.01059115     0.12271134
O      -1.90157568     2.85162291     5.64832224    -0.00049339    -0.00682602    -0.03965465
O      -0.00000180     4.75316644     0.79462650    -0.00048131    -0.00613491    -0.03957443
O      -1.90158047    -0.94988583     5.65035966     0.00271123     0.00921047     0.05491056
O      -0.00001733     0.95170956     0.79664029     0.00269657     0.00860909     0.05526820
O       3.80437638     2.85361561     8.91803071     0.03127362    -0.00939893     0.03590778
O       5.70594543     4.75517854     4.06435249     0.03132556    -0.00937322     0.03515265
O       3.79962467    -0.95212592     8.91142707    -0.04887129     0.00719421    -0.06435911
O       5.70119413     0.94945104     4.05771862    -0.04887026     0.00718418    -0.06476971
O      -0.00096324     2.78122111     8.95643607    -0.02951525     0.03035677     0.15760200
O       1.90060816     4.68270271     4.10287228    -0.02953762     0.02976156     0.15539933
O       0.00376172    -0.87879202     8.94974305     0.05624959    -0.02843615     0.05394793
O       1.90533742     1.02270430     4.09588391     0.05620974    -0.02877837     0.05544920
O       1.90554412     0.97125942     8.07888680     0.03013385     0.03220719    -0.04566718
O       3.80712344     2.87287827     3.22505944     0.02978187     0.03200176    -0.04406307
O       1.89091889    -2.87221414     8.08181086    -0.06336640    -0.02792913     0.17840917
O       3.79249658    -0.97069750     3.22820977    -0.06345202    -0.02751004     0.17613477
O      -1.90721776     0.94791456     8.07029793    -0.04639917    -0.03214831    -0.18968475
O      -0.00565214     2.84953568     3.21657753    -0.04597108    -0.03249953    -0.19038563
O      -1.89163867    -2.84964009     8.07360643     0.06168542     0.02793145     0.03677990
O       0.00992371    -0.94811375     3.21992345     0.06165328     0.02806926     0.03620963
O       3.78558573     4.71909574     6.47549655     0.01996257    -0.17233571     0.05000849
O       5.68718424     6.62066187     1.62180325     0.01881817    -0.17196650     0.04985654
O       3.78486140     0.98554098     6.47213132     0.02282858     0.17803739    -0.05955500
O       5.68638524     2.88711583     1.61841484     0.02480653     0.17808804    -0.05947889
O       0.01678379     4.71868485     6.47454318    -0.03258103    -0.18162974    -0.00025788
O       1.91832204     6.62024000     1.62084783    -0.03136104    -0.18135360    -0.00043529
O       0.01614804     0.98640886     6.44474103    -0.02654716     0.18712907    -0.04935260
O       1.91777799     2.88799832     1.59100112    -0.02861330     0.18709410    -0.04884584
