# total energy = -19070.88353303 eV

CRYSTAL
PRIMVEC
        5.17600016     0.00000000     0.00000000
        0.00000000     5.50899976     0.00000000
        0.00000000     0.00000000     9.26300011
PRIMCOORD
22 1
Ti      1.94864998     3.50811999     3.36031300    -0.13302841     0.58434486     0.03568538
Ti      3.74888802     2.38161598     6.09049502    -1.62652983     0.64017587    -1.00890665
Ti      4.41597500     2.36823901     1.59828998     0.03368224    -4.17972723    -1.73216544
Ti      1.03591098     2.40540800     7.71287902    -1.09741511     2.57638671     1.57447320
Ti      1.81925799     0.58826799     1.30811299     0.56262597     0.82101602    -1.14576138
Ti      3.09902401     5.44679699     7.94762501     0.79874100     1.14917272    -0.78332595
Ti      0.32153900     5.31590002     6.18704600     3.64864434    -0.08040074    -0.45590047
Ti      4.44050199     5.09444701     3.55509003     1.31914996     0.38964389     0.11228346
O       3.47344798     2.96557699     4.29800900     0.02366984     1.87043171     0.52670533
O       0.65499200     1.88211001     0.27353098     1.21466723     1.27834140    -1.58149103
O       4.67156898     3.91441498     6.91155702    -3.14135341    -1.09589713     1.75013129
O       3.46280601     1.14071501     0.31228099    -0.27334231    -0.34409626    -2.57338854
O       2.06836400     4.84433202     9.20596501    -1.82934212    -2.01700598     0.61056061
O       4.52301200     0.93384899     5.10679103    -1.87280535    -0.18797908    -2.83539331
O       0.95841303     4.97436902     4.30557698     1.51198663    -2.08395470     1.08251377
O       0.31150701     3.57696902     2.29206601     0.27129956     1.39992711     1.15623555
O       4.78829998     1.26237900     7.28510001    -0.47422858    -0.90654534     2.08834461
O       2.63663401     2.12510800     2.10712602    -1.24975535     1.21179711     1.94025621
O       1.79495098     3.98440999     6.71740099     2.10724968     0.12655154     0.40337050
O       0.11922602     0.63389799     2.15776400    -1.23654424     0.87077357     1.52536331
O       2.08305899     1.39844201     6.65756898     1.74930622    -1.96425027    -0.45252101
O       2.85496201     4.88019198     2.50353402    -0.30667796    -0.05870602    -0.23706917
