# total energy = -19005.84667305 eV

CRYSTAL
PRIMVEC
        7.60600008     0.00000000     0.00000000
        0.00000000     7.60600008     0.00000000
       -1.89786986    -1.89786986     4.85670466
PRIMCOORD
22 1
Ti      4.26777801     6.27942199     1.40997998     2.16112202     1.63626120    -4.00195364
Ti      5.00177125     2.96941024     3.03075782   -14.60808156     7.48040374    -5.82559151
Ti      0.51641302     6.10730899     0.19389599    -3.33598856    11.80857238    11.39597342
Ti     -0.00942301     2.72847399     0.21600698   -10.85944544    -1.17934386     8.90923186
Ti     -0.98645476     2.49342520     4.36176984   -30.68733706    20.36535497    21.76238573
Ti     -1.12431777     1.58368124     3.11533579    -7.45845576   -25.96187395   -37.10574187
Ti      0.39784223     2.16896721     3.93472184    55.41834891    -1.72707260    -6.10077986
Ti      0.44754023    -0.66534477     4.14103381    22.52645437    -7.04064235    -6.38880806
O       4.32824201     4.60723198     2.00394101    -0.52494978     0.96319962     0.46336336
O       3.99155002     0.57442799     0.76249102    -1.18073663    -1.44858731     0.21430590
O       0.97860098     4.47233798     1.01109601     2.06451639    -1.46741885    15.79678372
O       1.08363399     1.34985697     0.17405000    -9.63124006    -4.75106179    13.87421902
O      -1.13927676     4.20898922     3.39262880    -3.15098837     2.91127867    -5.28804331
O       4.54353423     1.07805122     3.46444784     0.80192017     0.84319514     1.67275519
O       0.52804624     4.80440020     4.68420182     1.18433412     0.15967894     1.70297081
O       3.02453898     2.69903501     0.10335800     0.50046747    -0.50027104    -1.07555353
O       2.62015723     2.98066024     3.48656580     0.05193168    -0.28209434     0.55983530
O      -0.00125600     2.85664702     2.29117001     5.94736902    -0.57273093    -2.80846228
O       6.02684902     6.58722799     0.65776002    -0.62726687    -1.15736401     0.26954247
O       5.87809698     2.49303398     1.49022002    -2.07385181    -0.63839538    -2.37724441
O       0.65053903     6.30946798     2.09648702     0.24393145     2.91814018     1.97842142
O      -1.12510079    -0.14993676     3.69944079    -6.76205370    -2.35922842    -7.62760999
