# total energy = -19948.74968300 eV

CRYSTAL
PRIMVEC
        6.23419366     0.00000000     0.00000000
        0.00002899     5.42869163     0.00000000
        0.00000000     0.00000000    10.24594685
PRIMCOORD
24 1
Ti      2.25961252     3.21703752     3.80117333     0.22511431    -0.32833617     0.25808795
Ti      3.97461019     2.21165388     6.44477392    -0.22511431     0.32833617    -0.25808795
Ti      5.37660134     2.21165563     1.32175936     0.22638109     0.32859585    -0.25814580
Ti      0.85762137     3.21703594     8.92418801    -0.22638109    -0.32859585     0.25814580
Ti      2.25959826     0.50269182     1.32180044     0.22511431    -0.32833617    -0.25808795
Ti      3.97462445     4.92599975     8.92414693    -0.22511431     0.32833617     0.25808795
Ti      0.85760711     0.50268984     6.44473284    -0.22638109    -0.32859585    -0.25814580
Ti      5.37661560     4.92600168     3.80121442     0.22638109     0.32859585     0.25814580
O       1.97317188     1.91153453     5.22842841     0.89787712     0.85487283    -0.34236051
O       4.26105083     3.51715687     5.01751885    -0.89787712    -0.85487283     0.34236051
O       1.14398180     1.91155647     0.10548778    -0.89677283     0.85437224    -0.34285982
O       5.09024097     3.51713499    10.14045918     0.89677283    -0.85437224     0.34285982
O       4.26103657     0.80281100     0.10545452    -0.89787712    -0.85487283    -0.34236051
O       1.97318614     4.62588040    10.14049244     0.89787712     0.85487283     0.34236051
O       5.09022665     0.80278912     5.22846167     0.89677283    -0.85437224    -0.34285982
O       1.14399594     4.62590234     5.01748559    -0.89677283     0.85437224     0.34285982
O       0.22652020     3.30203801     2.76768596    -0.48358329    -0.02383465     0.15335093
O       6.00770251     2.12665339     7.47826129     0.48358329     0.02383465    -0.15335093
O       3.34362326     2.12660294     2.35532026    -0.48371004     0.02422854    -0.15337022
O       2.89059944     3.30208846     7.89062682     0.48371004    -0.02422854     0.15337022
O       0.22650588     0.58769214     2.35528752    -0.48358329    -0.02383465    -0.15335093
O       6.00771683     4.84099926     7.89065956     0.48358329     0.02383465     0.15335093
O       2.89058512     0.58774259     7.47829397     0.48371004    -0.02422854    -0.15337022
O       3.34363759     4.84094881     2.76765322    -0.48371004     0.02422854     0.15337022
