# total energy = -4987.85576825 eV

CRYSTAL
PRIMVEC
        3.55456761     0.00000000     0.00000000
        0.70386738     3.48418163     0.00000000
       -2.12924988    -1.74211731     4.55950136
PRIMCOORD
6 1
Ti      0.52777801     2.61326946     1.13987546     0.00091248    -0.00097136    -0.00062504
Ti      1.60140711    -0.87120514     3.41962604    -0.00091248     0.00097136     0.00062504
O       0.17600409     0.87104031     0.74270557     0.00042963     0.00149818     0.80397166
O       1.95318092     0.87102392     3.81679599    -0.00042963    -0.00149818    -0.80397166
O      -0.17598076    -0.87102123     3.02245615     0.00153572     0.00046794     0.80457998
O       2.30516566     2.61308537     1.53704536    -0.00153572    -0.00046794    -0.80457998
