# total energy = -19959.52029835 eV

CRYSTAL
PRIMVEC
        7.60600008     0.00000000     0.00000000
        0.00000000     7.60600008     0.00000000
       -1.89786986    -1.89786986     4.85670466
PRIMCOORD
24 1
Ti      3.75035902     6.57643500     1.26398902     0.67065271    -2.08963170     0.18363031
Ti      3.74244100     2.73762997     1.16296199     0.98935109     1.65114198     1.87928967
Ti      0.09675800     6.73184901     1.32511201    -0.43051441     0.22678115    -0.70052868
Ti      0.02826299     2.96137199     1.05885500    -1.29683046     0.27415786     0.25342602
Ti      5.70154625     3.15231724     3.63579781    -0.97711058    -1.14506024    -1.33971725
Ti      5.75337323    -0.87345579     3.64025280    -1.05500424     0.67005621    -0.48805058
Ti      1.72830322     2.74805223     3.64186679     1.32290506     0.45677310     0.34443796
Ti      1.86428621    -1.09424875     3.76762782     1.63917658    -0.48914716    -1.64548041
O       3.74133200     4.57630300     0.68883098    -0.87689511     1.23749324     0.89793677
O       3.74943302     0.80023798     0.77787997    -0.14562657     0.89646919     1.63552304
O       0.25535401     4.92631999     0.75225203    -1.21326752    -1.67760044    -0.72230054
O       0.21751699     0.99910401     0.81498001    -1.30639626     0.54949894    -0.74297864
O       5.99439722     4.96299023     4.08159482    -0.33259906    -1.61095279     0.08192155
O       5.77249823     1.08569921     3.80152681    -0.70597582    -1.12777702     1.97452363
O       1.77516424     4.65032024     4.12929481    -0.38421757    -0.28860978    -0.09069518
O       2.01511824     0.88227320     4.11509682    -0.20850189    -1.24114986    -1.19815097
O       3.76859823     2.88744921     3.16999181    -0.08995111     0.13352206     0.07623941
O       3.75879120     6.18522023     3.25359584     1.27881114     1.84611215    -0.09008326
O      -0.07945776     2.89464824     3.13299179    -0.16728863     0.04822440     0.03483589
O       0.06977922    -0.81383879     3.29477684    -1.29863923     0.13612376    -0.90886756
O       5.66962300     6.50618597     1.45269897     0.97171383     0.69525766     1.63282878
O       5.63236098     3.11239902     1.57497099     0.94565981    -0.84459870    -0.04604410
O       1.90332600     6.36060101     1.74104099     0.09985911     1.26833363    -0.10070526
O       1.71121301     2.72349602     1.67878001     2.57068940     0.42458262    -0.92099006
