# total energy = -39040.44318277 eV

CRYSTAL
PRIMVEC
        7.60629642    -0.00000847    -0.00005503
       -0.00000847     7.60629642    -0.00005503
       -3.80314186    -3.80314186     9.70738094
PRIMCOORD
46 1
Ti      1.88182043     4.81979437     6.13551686     0.03597926    -0.01154220    -0.00990621
Ti      3.78340164     6.72140133     1.28183460     0.03592192    -0.01158848    -0.01000185
Ti      1.92588809     0.88812575     6.05932733     0.00037075     0.03050769    -0.01357800
Ti      3.82744244     2.78971140     1.20566419     0.00044943     0.03019582    -0.01368599
Ti     -1.88224226     4.73560978     6.08701501    -0.01799284     0.00391759    -0.01405237
Ti      0.01932553     6.63719635     1.23332422    -0.01789823     0.00389497    -0.01409582
Ti     -1.92953336     0.96450924     6.02137411     0.00532424    -0.00015375    -0.02468389
Ti     -0.02794735     2.86608912     1.16771530     0.00534250    -0.00015041    -0.02482041
Ti      3.80630169     0.96644476     8.48367654     0.00831984     0.00891453     0.00267343
Ti      5.70787803     2.86801588     3.62997362     0.00831032     0.00884408     0.00276856
Ti      3.81049165    -2.86735649     8.50433728     0.00710576     0.00082815     0.02714726
Ti      5.71205392    -0.96579950     3.65064251     0.00706668     0.00084872     0.02714777
Ti     -0.00272818     0.96272963     8.35055479    -0.00926806    -0.00576442     0.00772334
Ti      1.89884780     2.86427759     3.49691812    -0.00927783    -0.00568317     0.00761098
Ti     -0.00055601    -2.86805816     8.58381604    -0.00072145    -0.00347922    -0.01385157
Ti      1.90100044    -0.96646832     3.73011380    -0.00061449    -0.00361472    -0.01391610
O       1.89432628    -0.95287163     5.69519412    -0.00627401     0.00388288    -0.00882043
O       3.79590114     0.94871304     0.84152921    -0.00627169     0.00416879    -0.00874947
O      -1.90010717     2.85714473     5.60932374     0.00191084     0.00980696     0.01016306
O       0.00146854     4.75872859     0.75564794     0.00190622     0.00966992     0.01009004
O      -1.89761993    -0.95347834     5.67586832     0.00378389    -0.00628224    -0.01496280
O       0.00395724     0.94809922     0.82220252     0.00377207    -0.00612951    -0.01496794
O       3.83669919     2.85539022     8.93697031     0.01239169    -0.00847307    -0.01386622
O       5.73826849     4.75694807     4.08326266     0.01241715    -0.00846819    -0.01372995
O       3.77746175    -0.95291321     8.87685738    -0.00430609     0.01155583    -0.00732533
O       5.67903027     0.94864357     4.02314672    -0.00431894     0.01157485    -0.00729654
O      -0.02946247     2.74273654     9.01305929    -0.01220863    -0.03438518     0.03109339
O       1.87211514     4.64427496     4.15940493    -0.01221737    -0.03408410     0.03095609
O       0.02301159    -0.85769529     8.92557246     0.00289918    -0.00881452     0.00155115
O       1.92459762     1.04382515     4.07184946     0.00288401    -0.00903435     0.00157326
O       1.91741124     1.00272361     8.04379504    -0.01147484     0.02730615    -0.00342985
O       3.81897728     2.90426314     3.19014182    -0.01145993     0.02735269    -0.00366357
O       1.87985562    -2.89360504     8.14108019     0.01841965    -0.02470085     0.02328906
O       3.78143765    -0.99206520     3.28738772     0.01822193    -0.02469340     0.02314405
O      -1.91752753     0.92577635     8.00821318    -0.00835223     0.00262073    -0.02280852
O      -0.01594555     2.82729792     3.15455262    -0.00842242     0.00272511    -0.02291137
O      -1.88152137    -2.83125032     8.09961934    -0.02223079    -0.01282004    -0.00992343
O       0.02004126    -0.92971048     3.24593469    -0.02205699    -0.01279639    -0.01002628
O       3.78028444     4.63421707     6.50509812     0.00781667     0.02298079     0.02163816
O       5.68184893     6.53579711     1.65137357     0.00789972     0.02293065     0.02188755
O       3.78196541     1.08607805     6.42041936     0.01156071    -0.00564512     0.02541511
O       5.68354638     2.98768182     1.56674648     0.01122030    -0.00565771     0.02549970
O       0.01879026     4.62275869     6.50639157    -0.00682474     0.00373761    -0.00259064
O       1.92037598     6.52433916     1.65268683    -0.00703146     0.00371036    -0.00235436
O       0.02425195     1.07977858     6.40410943    -0.01618587    -0.00403792     0.00930380
O       1.92581116     2.98136339     1.55043941    -0.01588660    -0.00397673     0.00934314
