# total energy = -19948.88188862 eV

CRYSTAL
PRIMVEC
        4.86346773     0.00000000     0.00000000
        1.02501553     5.07369621     0.00000000
        0.00000000     0.00000000     8.74882219
PRIMCOORD
24 1
Ti      2.37019631     3.00666767     3.24575074     1.97830521    -0.84082998     0.45408244
Ti      3.51828672     2.06702865     5.50307179    -1.97830521     0.84082998    -0.45408244
Ti      4.61201921     2.06703047     1.12862557    -3.20307559    -0.41856727     1.78463525
Ti      1.27646384     3.00666605     7.62019707     3.20307559     0.41856727    -1.78463525
Ti      1.85768866     0.46981976     1.12866065     1.97870913    -0.84170544    -0.46015667
Ti      4.03079438     4.60387672     7.62016199    -1.97870913     0.84170544     0.46015667
Ti      0.76395611     0.46981780     5.50303671     3.20336818     0.41778025     1.79382026
Ti      5.12452694     4.60387868     3.24578582    -3.20336818    -0.41778025    -1.79382026
O       1.90024355     1.78653471     4.46445713    -1.32932511    -0.66633891    -0.68436775
O       3.98823948     3.28716162     4.28436541     1.32932511     0.66633891     0.68436775
O       1.25337355     1.78655514     0.09007404     1.38964938    -1.17691905    -0.17056242
O       4.63510954     3.28714123     8.65874825    -1.38964938     1.17691905     0.17056242
O       3.47573181     0.75031356     0.09004564     1.32898906     0.66604375    -0.68450196
O       2.41275121     4.32338277     8.65877665    -1.32898906    -0.66604375     0.68450196
O       4.12260187     0.75029317     4.46448553    -1.39021734     1.17732786    -0.17042024
O       1.76588111     4.32340321     4.28433701     1.39021734    -1.17732786     0.17042024
O       0.80017353     3.08610959     2.36327522    -0.72419750    -1.07369719    -1.62944675
O       5.08830950     1.98758674     6.38554731     0.72419750     1.07369719     1.62944675
O       3.00997785     1.98753935     2.01116388     0.78035530    -1.70674159    -1.55618699
O       2.87850517     3.08615697     6.73765851    -0.78035530     1.70674159     1.55618699
O       0.28766587     0.54926152     2.01113592    -0.72450757    -1.07379875     1.62865947
O       5.60081717     4.52443486     6.73768647     0.72450757     1.07379875    -1.62865947
O       2.36599751     0.54930886     6.38557522    -0.78068671     1.70693905    -1.55581341
O       3.52248552     4.52438747     2.36324727     0.78068671    -1.70693905     1.55581341
