# total energy = -19514.47483807 eV

CRYSTAL
PRIMVEC
        5.93400000     0.00000000     0.00000000
        0.00000000     9.29699974     0.00000000
        0.00000000     0.00000000     4.64899994
PRIMCOORD
23 1
Ti      4.32933799     7.06254299     2.26330697    -0.30023683     0.08418361     0.70705980
Ti      4.59248403     2.43548299     2.37353100     0.56198062    -3.13333182     0.26485329
Ti      1.33348799     6.96304300     2.18329400    -0.93201341    -0.48758470    -0.09168789
Ti      1.48082602     2.39237600     2.34657799    -1.40313096    -2.18441494     0.88494035
Ti      3.07633898     4.43668398     0.27401602    -2.29310451    -0.55490597     0.23592991
Ti      3.02589399     0.31753302     4.54241402     0.31725471     0.64159949     0.34398982
Ti      5.91481802     4.62024101     4.64376400     1.28601229     0.95015590    -1.05715599
Ti      0.05854801     9.00083501     4.46781500    -0.04693859     3.09319175     0.32445354
O       4.34273602     5.51668998     0.94621798     0.91325104     1.31560004     0.66179346
O       4.65943701     1.13091698     0.88576599    -1.76908572    -1.55932477    -1.08145653
O       1.42305902     5.41556500     0.84394199     0.78167813     2.49851696     2.41556620
O       1.36424800     1.00375701     0.77034100     1.87559628    -0.21566216     0.58528254
O       4.33315601     8.29542099     3.76550101    -0.02583394    -0.00125907     0.00739475
O       4.44780501     3.52539699     4.05435400    -0.15806480     0.13368353    -0.90351941
O       1.62455098     8.52019300     3.61462897    -0.90888556    -1.48906755     0.08065296
O       1.68854100     3.92179398     3.77117702    -1.30334590    -1.98481190    -1.41817218
O       3.26637102     1.19171299     2.86091198    -2.67361044    -0.56229764     3.22019220
O       5.77764300     6.10438100     3.35991898    -0.02007261    -0.11118663    -0.52040896
O       5.89399198     1.34801798     3.42380898     0.68212421     1.26172332    -2.54401625
O       2.67111001     7.82835602     1.39096600     1.99980555    -0.29440196     0.18300219
O       2.94908698     3.16499701     1.71211701     1.05781188     2.49750035    -2.20615748
O       5.72114898     7.78474700     1.36313699     1.42407929     0.41480008    -0.17254603
O       0.03662499     3.43744699     1.62266600     0.93472979    -0.31270565     0.08000967
