# total energy = -4988.09460581 eV

CRYSTAL
PRIMVEC
        3.54237454     0.00000000     0.00000000
        0.00000000     3.70024655     0.00000000
        0.00000000    -0.00006467     4.81802893
PRIMCOORD
6 1
Ti      1.77118711     1.85009089     2.40901441     0.00000000     0.00000000     0.00000000
Ti      0.00000000     0.00000000     0.00000000     0.00000000     0.00000000     0.00000000
O       1.77118711     0.72111094     0.93896285     0.00000000    -0.36941084    -0.12740361
O       1.77118711     2.97907083     3.87906592     0.00000000     0.36941084     0.12740361
O       0.00000000     1.12895407     3.34797832     0.00000000     0.36916350    -0.12692564
O       0.00000000     2.57122770     1.47005050     0.00000000    -0.36916350     0.12692564
