# total energy = -4985.99177687 eV

CRYSTAL
PRIMVEC
        3.93399366     0.00000000     0.00000000
        0.00000000     3.31906523     0.00000000
        0.00000000    -0.00007497     5.21046317
PRIMCOORD
6 1
Ti      1.96699672     1.65949508     2.60523175     0.00000000     0.00000000     0.00000000
Ti      0.00000000     0.00000000     0.00000000     0.00000000     0.00000000     0.00000000
O       1.96699672     0.64682231     1.01544258     0.00000000    -0.46908895     0.81388892
O       1.96699672     2.67216790     4.19502086     0.00000000     0.46908895    -0.81388892
O       0.00000000     1.01264289     3.62067532     0.00000000     0.46878093     0.81468545
O       0.00000000     2.30634726     1.58978817     0.00000000    -0.46878093    -0.81468545
