# total energy = -4988.18286760 eV

CRYSTAL
PRIMVEC
        3.82028661     0.00000000     0.00000000
        1.46933421     3.52642124     0.00000000
       -2.64484587    -1.76323426     4.98006066
PRIMCOORD
6 1
Ti      1.10189739     2.64495169     1.24501490     0.00047745    -0.00047745    -0.00000000
Ti      1.54287767    -0.88176468     3.73504508    -0.00047745     0.00047745     0.00000000
O       0.36737327     0.88160069     0.81121107    -0.00027125    -0.00021649    -1.69164818
O       2.27740161     0.88158624     4.16884897     0.00027125     0.00021649     1.69164818
O      -0.36734027    -0.88157869     3.30124129    -0.00021649    -0.00027125    -1.69164818
O       3.01211509     2.64476559     1.67881880     0.00021649     0.00027125     1.69164818
