# total energy = -19958.34893237 eV

CRYSTAL
PRIMVEC
        7.60600008     0.00000000     0.00000000
        0.00000000     7.60600008     0.00000000
       -1.89786986    -1.89786986     4.85670466
PRIMCOORD
24 1
Ti      3.60811999     6.57688400     1.13225098     4.47686691     0.52846525    -0.81881104
Ti      3.72294299     2.74334202     1.12531299     1.45040945    -0.34399599     2.41431407
Ti      0.06547298     6.77551502     1.17009499    -3.88750582     1.07579573     0.74053146
Ti     -0.00968601     3.00586902     1.31871002    -1.65502975    -1.37795780    -1.30510710
Ti      5.74916220     2.93957423     3.65638783    -2.65643238    -1.51521927    -0.74507975
Ti      5.74712624    -0.85297075     3.69638284     0.27598129     1.41759548    -1.11274404
Ti      1.87978920     2.65748423     3.70936181     1.64906530    -0.17627696    -1.54909383
Ti      2.04574421    -1.06162376     3.52779983    -0.44463569     0.71027085     3.79721199
O       3.82650800     4.62074098     0.83988103    -0.65302805     1.49475226    -0.58071292
O       3.88104199     0.94611802     0.75401599    -0.53927006    -2.44291041    -1.64010526
O      -0.24061197     4.76798100     0.77377202     1.31387148     1.81632745     1.17211777
O      -0.12121699     1.01927201     0.97839799     1.29647565    -1.09399349    -1.65864498
O       5.59851020     4.83155324     3.99716883     0.98013651     0.39563662     0.92252578
O       5.31953621     1.01117120     4.27445183     1.67651543    -1.28620049    -0.76131884
O       1.82343823     4.51491320     4.01307981     0.27432704     2.92304173    -0.08124663
O       2.30544822     0.87285321     3.96416484    -1.25047937    -0.53976294     0.52104273
O       3.90310524     2.78517623     3.07060682    -2.76497231     0.65717550     0.94151981
O       3.94154722    -0.83475679     2.97956579    -1.83207880    -1.41792535     1.41837093
O      -0.04629280     2.64835825     3.27710480     1.16202336     0.23353750     0.78832958
O       0.07422124    -0.73825777     3.22268781     0.47413988    -0.85480342     0.71084344
O       5.80245098     6.85664001     1.69751801     0.49450354    -0.93774415    -0.21411512
O       5.63095501     2.70861497     1.74796803     1.96494549     0.75855645    -0.72765255
O       1.95738098     6.86640000     1.73584198    -1.61791766    -0.53204320    -2.39848533
O       1.87016400     2.72300198     1.61326199    -0.18791120     0.50767865     0.16631033
