# total energy = -19519.11008524 eV

CRYSTAL
PRIMVEC
        7.60600008     0.00000000     0.00000000
        0.00000000     7.60600008     0.00000000
       -1.89786986    -1.89786986     4.85670466
PRIMCOORD
23 1
Ti      3.84393502     6.73668601     1.10625600    -0.23768212    -0.03727870     1.37243455
Ti      3.69332298     2.86745298     1.29957900     1.28772413    -0.12452037     0.61940521
Ti      0.02965202     6.66529798     1.19987899     0.19044091    -0.66366291    -0.67557329
Ti      0.02996699     2.75809199     1.14323300    -1.46793179     0.46200890     0.43028379
Ti      5.63685422     2.84036820     3.68546681     0.17410386     1.01888228    -0.53306496
Ti      5.72822022    -0.95048177     3.58028881    -1.51483181    -1.32437959    -0.35071840
Ti      1.94513725     2.82463121     3.74355179     0.63379670     0.24400961     0.47033310
Ti      1.83968222    -0.88806378     3.59374981     1.96265490    -0.55527621    -0.19751685
O       3.74081801     4.73042000     0.76092302    -0.20601614    -0.04090550     1.30177727
O       3.95452698     1.01671301     0.81794102    -0.60606400     0.00919504    -0.15371140
O       0.13712999     4.83553403     0.75682200     0.00257727    -1.53554925     0.28207198
O      -0.07551301     0.87615200     0.67720702     0.24442304     0.98388955     1.03202705
O       5.71297224     4.72494122     3.98507580     0.37227248    -0.23673595     0.08435073
O       5.73316723     0.89888122     4.10955883     0.42615279     0.74159564    -1.05130622
O       2.00417025     4.77717620     4.06461480    -0.73705019    -0.44734486    -0.14115747
O       1.67193923     0.92489023     4.11224080    -0.13802972     0.53128447    -0.42157263
O       3.82073521     2.85042220     3.31263683    -0.82435537    -0.46002555    -0.53913636
O       3.77925321    -1.12552175     3.18710080     0.15135987     0.99712894    -0.17921110
O       0.03770520    -1.19298677     3.20213483    -0.28396379     0.66985618    -0.31496103
O       5.69684800     6.67899198     1.63956199     0.64359621     0.00624264    -0.35434957
O       5.78193102     2.82753100     1.65738802     0.53656603     0.26354666     0.26363742
O       1.93726600     6.87590698     1.53457799    -0.51942654    -0.19026196     0.78101324
O       1.78184299     2.84287100     1.86036300    -0.09031646    -0.31169907    -1.72505454
