# total energy = -19073.50679787 eV

CRYSTAL
PRIMVEC
        5.93400000     0.00000000     0.00000000
        0.00000000     9.29699974     0.00000000
        0.00000000     0.00000000     4.64899994
PRIMCOORD
22 1
Ti      4.44392402     7.12075598     2.29791099    -0.31238401    -2.36235077    -0.09471588
Ti      4.39577302     2.14540300     2.35418602    -1.43410505     0.80539425    -0.17213105
Ti      1.50918801     7.17146301     2.47382998     0.46901284    -0.72970377     1.77778248
Ti      1.51664502     2.51459499     2.06006603     0.39840184     0.07007133     0.50603828
Ti      3.04074598     4.70398898     0.05315601     1.17733017     0.09630148    -0.82546712
Ti      3.04557600     0.03513700     4.59945001    -0.32598823     1.35331094     0.27173922
Ti      5.83379600     4.41212100     4.43269001    -0.00609017     0.48263789    -0.43366813
Ti      0.02845100     9.16578601     0.17076502     0.35833581     0.66732262     0.59643496
O       4.58145603     5.70974802     0.87879101    -1.18344760    -0.97835705    -0.34103742
O       4.55273900     0.84325898     1.06221099    -0.05505582    -0.60459230    -1.35816184
O       1.34424500     0.87217603     1.01261300    -0.15433258     1.34121158    -0.52096920
O       4.41595600     8.33685499     3.84009801     0.92963849     0.72607055    -0.08238435
O       4.27686202     3.53043899     3.58416001     0.49110171     1.61649892     1.31928571
O       1.49330401     8.33412300     4.04330202    -0.16433083    -1.29973890    -2.25524089
O       1.47970300     3.54912498     3.77362203    -0.06308770     1.14325044    -0.75729223
O       3.07474102     6.15254301     3.29823702    -1.47452538    -0.43624232    -0.40456143
O       2.76279600     1.19949898     3.18257602     0.67152766     1.28340853    -0.32310294
O       5.80350098     6.08289900     3.22749301     1.61620170    -0.22190737    -0.22037988
O       2.88490201     8.19139601     1.45026799    -0.22506391    -2.90361653     2.16673372
O       3.10736400     3.04700700     1.18186902    -0.41141163     0.84630823     0.89563872
O       0.08052601     8.00462999     1.62633902    -0.25453982    -0.03165749    -0.56404162
O       5.88449499     3.30849602     1.32942100    -0.04718747    -0.86362025     0.81950113
