# total energy = -4981.44632118 eV

CRYSTAL
PRIMVEC
        2.88893382     0.00000000     0.00000000
        1.93878586     4.09029943     0.00000000
       -0.00001267    -0.00006082     4.65161101
PRIMCOORD
6 1
Ti      2.41385341     2.04511933     2.32580540     0.00000000     0.00000000     0.00000000
Ti      0.00000000     0.00000000     0.00000000     0.00000000     0.00000000     0.00000000
O       1.82230518     0.79712732     0.90653045    -7.26144157     3.17000477     4.17724766
O       3.00540158     3.29311135     3.74508036     7.26144157    -3.17000477    -4.17724766
O       0.59154293     1.24796747     3.23233681     7.26369540    -3.17297645     4.18196512
O       1.34723014     2.84227107     1.41927400    -7.26369540     3.17297645    -4.18196512
