# total energy = -19961.30893430 eV

CRYSTAL
PRIMVEC
        7.60600008     0.00000000     0.00000000
        0.00000000     7.60600008     0.00000000
       -1.89786986    -1.89786986     4.85670466
PRIMCOORD
24 1
Ti      3.77408998     6.55904300     1.25238999     0.63860313    -0.64759325     0.19643853
Ti      3.77409903     2.77726397     1.19244500     0.55622032     0.36371147     1.57172032
Ti      0.05702001     6.71747502     1.29310298    -0.83277317    -0.09416180    -1.58315916
Ti      0.02057600     2.91901098     1.14036099    -0.47924609     0.35592257    -0.44891298
Ti      5.70947121     3.00569720     3.60045083    -1.51195012     0.06368239    -0.08043853
Ti      5.73624123    -0.88394577     3.65032881    -0.72676577    -0.19930633    -0.38297856
Ti      1.79202722     2.78551925     3.64014781     1.13822085     0.19505938    -0.16832659
Ti      1.86743424    -1.01643879     3.69458184     0.90501168    -0.38830743    -0.23406586
O       3.77677598     4.62378301     0.75763799    -0.37954099     1.09810957     0.29082376
O       3.78611500     0.87128600     0.76554401    -0.17662277    -0.88562813     0.66019500
O       0.18124702     4.92606800     0.67880302    -0.70582850    -1.86645447     1.00049606
O       0.09472500     0.98456999     0.76704301    -0.39983137     0.99583567     0.06818414
O       5.83001625     4.87670920     4.04583779    -0.00695689     0.11302214    -0.12174075
O       5.77228725     1.12122520     3.92545483    -0.54834375    -1.91857435     1.37563326
O       1.82560923     4.61237125     4.10284579    -0.34429398     1.02277108     0.01990677
O       1.93135721     0.86812221     4.12357980    -0.11836901    -0.09279732    -1.27599089
O       3.78285125     2.90221923     3.22296182    -0.87598751    -0.15002135    -0.09297987
O       3.80277821    -1.18545277     3.25226781    -0.32387170     0.95293372    -0.18686245
O      -0.10770080     2.87860422     3.07953282     2.08538090     0.11113495     0.35753054
O       0.00853325    -0.79852376     3.19651783     0.37454405    -0.15820724     0.77582475
O       5.72421700     6.56943499     1.65480198    -0.49210573     0.28542264    -0.23252037
O       5.63417098     2.90011300     1.62854198     0.71585092    -0.04666708    -1.20820990
O       1.87859998     6.46117199     1.69541702     1.21412884     0.70130336     0.08303201
O       1.83711100     2.75007300     1.66121899     0.29452692     0.18880954    -0.38359896
