# total energy = -4990.60672135 eV

CRYSTAL
PRIMVEC
        3.76511673     0.00000000     0.00000000
       -0.00000838     3.76511673     0.00000000
       -1.88258789    -1.88259208     4.80512632
PRIMCOORD
6 1
Ti     -0.00016581     2.82398015     1.20128145    -0.00007302     0.00007302     0.00000000
Ti      1.88268615    -0.94145561     3.60384456     0.00007302    -0.00007302     0.00000000
O       0.00003761     0.94127279     0.78271576     0.00004139     0.00047051     0.16834510
O       1.88248264     0.94125165     4.02241030    -0.00004139    -0.00047051    -0.16834510
O      -0.00002127    -0.94125644     3.18527887     0.00047051     0.00004139     0.16834510
O       1.88254146     2.82378083     1.61984719    -0.00047051    -0.00004139    -0.16834510
