# total energy = -19961.13193383 eV

CRYSTAL
PRIMVEC
        5.93400000     0.00000000     0.00000000
        0.00000000     9.29699974     0.00000000
        0.00000000     0.00000000     4.64899994
PRIMCOORD
24 1
Ti      4.48816398     6.94558201     2.36800602    -0.68622975     0.89559475     0.01361708
Ti      4.42939599     2.41933801     2.37731001     0.14466832    -1.38300847    -0.00268320
Ti      1.48255097     6.90728100     2.19385902     0.63599268     1.32951588     0.78532935
Ti      1.48336501     2.37961802     2.35096100    -0.06566163    -0.90409894     0.23022720
Ti      2.97831498     4.65305201     0.01202100    -0.24791923     0.08306877    -0.38460298
Ti      2.96438798     9.24400598     0.01776601    -0.17371176    -0.06634400    -0.28750009
Ti      5.90768301     4.65983400     4.63706700     0.28544758    -0.18990664     0.05664991
Ti      0.01323202     0.04141600     4.63862500     0.19587340    -0.14230110    -0.09296058
O       4.40212500     5.54943298     0.83916600     0.39097726     0.10710448     0.05753488
O       4.40022102     0.78700500     0.88423899     0.67728873     0.95015692     0.57765639
O       1.47432100     5.54694701     0.87799698    -0.08566945    -0.19110194    -0.31948257
O       1.48934302     0.91776200     0.94610198    -0.14276647    -0.17351687    -0.29013496
O       4.44986599     8.31240202     3.72649900     0.00921484     0.34878853    -0.07906299
O       4.44903699     3.68645902     3.78232001    -0.09292613     0.55898066     0.33209409
O       1.47057098     8.35935502     3.73723299    -0.24833446     0.20173783    -0.03930550
O       1.44718601     3.76153302     3.76700001     0.38192158    -0.09649842    -0.07803918
O       2.98745201     5.98739399     3.04139798    -0.32951450    -0.57818629     1.46061777
O       3.02126797     1.43990400     3.24492601    -0.20423411     0.19779401    -0.30995791
O       5.84377200     6.02927001     3.27934603     0.85049502    -0.07002891    -0.62631248
O       5.91141101     1.54263799     3.30433002     0.48633077    -0.85822761    -0.05958894
O       2.94038302     7.85247201     1.40445600    -0.21669677    -0.05315578    -0.06957793
O       3.03286198     3.34797100     1.50690302    -0.63193985    -0.21072049    -0.60680911
O       0.02155000     7.84024002     1.37861702    -0.16602571    -0.24052448     0.20908013
O       0.08434800     3.23145601     1.44617401    -0.76658061     0.48487784    -0.47678838
