# total energy = -19518.22652345 eV

CRYSTAL
PRIMVEC
        5.93400000     0.00000000     0.00000000
        0.00000000     9.29699974     0.00000000
        0.00000000     0.00000000     4.64899994
PRIMCOORD
23 1
Ti      4.43853398     6.99918899     2.20200999     0.38652437     0.34273383    -0.20884487
Ti      4.51906698     2.35134101     2.34436597     0.16046055    -0.35958742    -0.06538086
Ti      1.42241199     7.00006297     2.30319800    -0.67789011     0.50613676    -0.17629881
Ti      1.49720701     2.32587499     2.36026002    -0.14727927    -0.73955727    -0.28294101
Ti      2.94985498     4.51131199     0.12120397     0.16428275    -0.25177588     0.84371759
Ti      2.95611398     0.10721300     4.61581302    -0.29643056    -0.19611328     0.14912044
Ti      0.00921298     4.59167301     4.63709801    -0.38014880     0.64033348    -0.00514581
Ti      5.88735202     9.28706698     4.59004002     0.40370371     0.21673456     0.08004670
O       4.35244102     5.53061200     0.97463601     0.15288942     0.00416262    -0.54253819
O       4.51703700     0.93714502     0.91097599    -0.44721888    -0.28336113    -0.06918070
O       1.52376298     5.53842202     0.93956098    -0.01800313     0.11879169    -0.21910846
O       1.48585500     1.03596401     0.90605300     0.59885566    -0.81218531    -0.34473595
O       4.53143798     8.47294302     3.60237302    -0.77974672    -0.33214963     0.45152471
O       4.44509700     3.49921198     3.87500799    -0.02658316     1.86416335     0.36211816
O       1.54209601     8.42340399     3.69397000    -0.07741774    -0.35731945    -0.03553677
O       1.44701000     3.71900099     3.81650798     0.65184817     0.15691063    -0.37551773
O       3.01438698     1.45055798     3.19190700    -0.32986057    -0.82913737     0.70075803
O       5.88118002     6.03222202     3.23808698     0.13784383     0.05797454     0.06759098
O       0.03990399     1.44691602     3.30418201     0.17579744     0.13701414    -0.78117599
O       2.91247802     7.84852699     1.33709100     0.39769221    -0.18461607     0.65495432
O       2.99824501     3.28062600     1.53339501    -0.12383132     0.25351369    -0.36948669
O       5.91148499     7.80381998     1.33298998     0.40108247     0.36032661    -0.06712202
O       0.05796401     3.33458901     1.49154699    -0.32657033    -0.31299310     0.23318320
