# total energy = -19073.62608923 eV

CRYSTAL
PRIMVEC
        5.93400000     0.00000000     0.00000000
        0.00000000     9.29699974     0.00000000
        0.00000000     0.00000000     4.64899994
PRIMCOORD
22 1
Ti      4.43951799     6.93116002     2.46332200     1.02526865     0.09782306    -0.68485600
Ti      4.39704098     2.32555102     2.17059702    -0.38805674     0.01974119    -0.25669544
Ti      1.47869200     7.13582297     2.41728099    -0.24613437     0.30223432     0.51976515
Ti      1.59448800     2.41207701     2.26073200    -0.41616148    -0.43596156    -0.15003961
Ti      2.94209703     4.63691798     4.54960601     0.10401093    -0.13201231    -0.12750928
Ti      3.00495799     9.24189202     0.16142600    -0.38353160     1.22005884    -0.61917381
Ti      5.74387101     4.60454800     4.57905002     0.57697068     0.08998942     0.11993044
Ti      0.02613702     9.18219601     4.63487599     0.06311186    -0.24414793     1.40554009
O       4.33569098     5.61564797     1.02235801     0.52479295    -1.31348582    -0.76520789
O       4.52966899     0.87579301     0.78401398     0.26735806     0.63362238     0.67754970
O       1.42282501     0.74839300     1.10495702     0.18846167     0.37844313    -0.86200945
O       4.50131499     8.18635100     3.92349000    -0.34028177     1.38617273     0.09222396
O       4.39796799     4.01029602     3.38630503     0.24083455    -1.33523350     0.35659209
O       1.57689598     8.43773898     3.77219700    -0.24209696     0.21997493    -0.01643295
O       1.47655799     3.88162001     3.56726100    -0.47506368    -0.50362016     0.05711399
O       3.01759099     6.15065602     3.31451398    -1.64923139    -0.35148767     0.25706902
O       3.08736602     1.33333098     3.23744201    -0.02096941     1.29035514    -0.74731532
O       0.13362398     6.28691403     3.57061302     0.08981227    -1.42422970    -0.89096574
O       3.04959399     8.04656200     1.55505000    -0.14811077    -1.60908154     0.75316073
O       2.88030098     2.99783198     1.03479098     0.87665214     0.88978509     0.97147292
O       0.02134600     7.96796600     1.57350702     0.20786554    -0.92161716    -0.41637334
O       0.00421902     2.91056298     1.20817903     0.14449888     1.74267791     0.32616075
