# total energy = -19077.11020945 eV

CRYSTAL
PRIMVEC
        5.17575250     0.00001323     0.00000000
        0.00001429     5.50856584     0.00000000
        0.00000000     0.00000000     9.26345890
PRIMCOORD
22 1
Ti      1.93165568     3.39518976     3.33110439    -0.12182945    -0.03503155     0.03201385
Ti      3.35999795     2.25665427     5.90987883     0.11605295    -0.17602087    -0.01775450
Ti      4.50926780     2.26428628     1.15834183    -0.29245204    -0.04768910     0.01294114
Ti      0.75493506     3.24208959     8.09314272    -0.06707702     0.22081079     0.00192087
Ti      1.85343602     0.56281639     1.20566054    -0.08456053     0.36144530     0.18127852
Ti      3.22839524     4.98952798     8.10865189    -0.03257435     0.03471968     0.00881143
Ti      0.71245919     0.55157777     5.81132997     0.25288532    -0.10926215    -0.13167473
Ti      4.46329024     4.97183344     3.45341599     0.27832999     0.01053484     0.35552122
O       3.47060708     3.50466208     4.55264025    -0.04080239     0.03691128    -0.11939179
O       0.94020443     1.90626244     0.13330067     0.08386864     0.08556249    -0.14802361
O       4.19009419     3.61831224     9.12313537     0.01418170    -0.17816672     0.05760559
O       3.55888476     0.81353205     0.07400910    -0.05402507     0.13911884     0.02721591
O       1.61322559     4.68478514     9.14398045    -0.13002022     0.07347341     0.01702611
O       4.24376502     0.81755559     4.72943244    -0.08857222    -0.00223480    -0.08092653
O       0.95347446     4.66558709     4.57392973    -0.16350834    -0.22674901    -0.12739127
O       0.16532919     3.33135668     2.51701588     0.01646895    -0.01739660    -0.02519399
O       5.07586036     2.10015539     6.75503254     0.00151952     0.00206357     0.15739142
O       2.74687260     2.11927133     2.17028605     0.00349902    -0.18555144    -0.14552784
O       2.38124181     3.36925250     7.09710312    -0.05754722     0.04733480    -0.07674463
O       0.18949452     0.56642593     2.16047391    -0.00092765    -0.20724873     0.12802659
O       2.38201520     0.63400810     6.69654058     0.24660359     0.07784095     0.10357719
O       2.75881367     4.88590451     2.50200990     0.12048708     0.09553529    -0.21070121
