# total energy = -39033.74806407 eV

CRYSTAL
PRIMVEC
        5.93200024     0.00000000     0.00000000
        0.00000000     9.29399984     0.00000000
        0.00000000     0.00000000     9.29399984
PRIMCOORD
46 1
Ti      4.41663202     7.08995802     6.90769900     0.93505606    -0.80241408     0.05759556
Ti      4.52417698     6.98080600     2.34346600    -3.12824901     0.55924008    -0.19078724
Ti      4.46890600     2.21761299     7.23982901     0.57922631     0.14053141    -1.00301188
Ti      4.30483100     2.68818302     2.07085399     0.25953573    -2.08365671    -0.51368809
Ti      1.47209798     6.83297801     6.95653000    -0.50849523     0.36406963     1.02212187
Ti      1.40968702     7.06092698     2.39025898     2.85748038     0.35321803    -1.23123954
Ti      1.50991002     2.42416400     6.75772699    -0.65236393    -0.04561884     0.88746081
Ti      1.29631403     2.02823601     2.59445001     0.63629556     0.83408314    -1.64102237
Ti      2.90122999     4.61859998     4.71559399     1.58810056     1.14228397     0.54227491
Ti      2.97527199     4.86446002     9.09990000    -0.55155840    -0.35098991     0.46081976
Ti      2.99213200     9.29238199     4.70415000     1.03378106     0.14014651     0.10024786
Ti      2.98726299     0.04017403     9.24549402    -1.05456458    -0.59508822     0.07624301
Ti      5.86885500     4.52402902     4.41033598    -0.33979146    -0.10983705     2.38950857
Ti      0.05042800     4.68225302     0.12132198     0.77408283     0.19929219    -0.71892262
Ti      5.93194399     9.10075198     4.85056499    -1.51658582     1.02685527     0.23950966
Ti      0.02811598     0.02188799     0.02027902     1.06310527     0.23259185    -1.01984233
O       4.44779300     5.40290999     5.60887202     0.92615772     0.74178385    -0.96371821
O       4.42446797     5.75203902     0.79488202     0.30891970    -1.42466345     0.76490502
O       4.41516599     0.76167900     5.65668398    -0.03407639     0.65740793    -0.59214148
O       4.42781899     0.94457700     0.92303298     0.23744712     0.57129599    -0.63189563
O       1.42332302     5.32941801     5.55988402    -0.29754231     0.96926691     0.30519083
O       1.50846002     5.77034501     0.68151399     0.14947165    -0.71569486     2.07825200
O       1.47624599     0.83932301     5.56066101     0.52168217     1.55072699    -0.74247213
O       1.55490501     1.01859302     0.84727998    -0.20496945    -0.49045302     0.76335181
O       4.65523598     8.28817999     8.39518000    -1.85351024     0.61490269    -0.48816165
O       4.50642001     8.24433797     3.92863402    -0.08277438     0.94020907    -1.30020607
O       4.39819999     3.70327701     8.50581398     0.81944893    -0.38381468     1.11153073
O       4.37941202     3.64246100     3.64231098     0.21625171     0.85187570     0.23154258
O       1.46351901     8.47670801     8.21847698     0.84501034    -0.51400176     1.46425871
O       1.35236199     8.40495698     3.83380202     1.11140552    -0.51175565    -2.09249128
O       1.57550699     3.75110802     8.52148900    -0.51203924    -0.41475817    -0.73516814
O       1.55240899     3.68273700     3.69801302    -0.87234323    -0.74631928    -0.17605610
O       3.06095802     5.98890299     7.69331602    -0.12652789     0.59831213    -0.05427164
O       3.12245900     6.16959702     3.38305598    -1.44081589    -0.90203306    -0.62912372
O       2.90146299     1.25402001     7.71866700     0.77214370     0.66046600     0.85567219
O       3.01501098     1.61468002     3.06607098     0.06562460    -1.21701208     0.61298465
O       0.12715701     6.14722600     7.99341599    -0.70894365    -0.91410310    -1.06675315
O       5.89618902     6.01974402     3.22474001     0.69265313    -0.29709314    -0.37496725
O       0.18343898     1.37963600     7.75350501    -0.93785239     0.49455188     1.01984644
O       2.94337499     7.88530502     5.99340899     0.15884487    -0.55146918     0.28661126
O       2.87754201     7.90487998     1.47590498     0.21904316     0.41448821     0.02030452
O       3.22312999     3.30041898     6.23879499    -2.26359621    -0.71524157    -1.00830142
O       0.13419999     7.87231901     6.14550802    -0.93584076    -0.74665275    -0.22349168
O       5.91983800     7.87593102     1.27001498     0.69885824    -0.25166713     2.22773033
O       5.81503598     3.11618602     6.04216801     1.37545971     0.14047922    -0.38472254
O       0.17731999     3.18861599     1.47155001    -0.82264507     0.58625828     0.26449334
