# total energy = -19073.62098328 eV

CRYSTAL
PRIMVEC
        5.17600016     0.00000000     0.00000000
        0.00000000     5.50899976     0.00000000
        0.00000000     0.00000000     9.26300011
PRIMCOORD
22 1
Ti      1.80584901     3.36235499     3.30640498    -0.12192561     0.85943577     0.63721165
Ti      3.73862103     2.39545502     5.89720102     0.66856780    -1.01290472    -0.40401507
Ti      4.28285400     2.42963500     1.21429901    -0.71609286    -1.04037183    -1.22982286
Ti      0.86566302     3.14533803     8.14881100    -0.85341450    -0.16956612     0.32477184
Ti      1.73637000     0.57942602     1.25710099     1.71803851    -0.02873646    -1.94277821
Ti      3.25696903     4.88303901     7.80696800     0.84705976     2.55515324     2.78091650
Ti      0.80901899     0.10770302     6.07608002    -0.97504496     1.65249387    -0.44847409
Ti      4.44863799     5.05227201     3.40597200    -0.51069327     0.67040691     1.19765244
O       3.44155198     3.55456302     4.37794499     0.15245876    -0.83332493     1.61680566
O       0.74544601     1.99778398     0.43857099     1.27335500     0.24902660    -1.95803282
O       4.31901501     3.66361401     8.94551699    -0.39612795    -0.33715891     0.77151481
O       3.38105199     0.75871000     0.20707198    -1.11259208     0.84728756     0.00204300
O       1.54560901     4.70543601     8.80638099     0.23803719     1.25961270     1.26947803
O       4.18854499     0.78000102     4.99130899     1.16625977    -0.65920975    -1.33228367
O       0.99177501     4.84686699     4.36486499    -0.65399324    -0.13186550     1.38310849
O       0.06487099     3.48754103     2.45270200    -0.30281847     0.17070203     0.35186537
O       0.21237899     1.86394500     6.89937901    -0.89101150    -0.46814792    -0.92067767
O       2.65352000     2.11156000     2.31197302    -0.13307752    -1.68949951    -0.88423947
O       2.58844501     3.42482701     7.04246902    -1.84289544    -1.90021229    -1.36120757
O       4.98630800     0.78718201     2.15317101     0.82134409    -1.17951098     1.29285656
O       2.48668301     0.72079799     6.68068598     0.15811519     0.02135302    -0.23473409
O       2.45426201     4.75053699     2.39801502     1.46645083     1.16503695    -0.91195906
