# total energy = -4987.34758536 eV

CRYSTAL
PRIMVEC
        4.01612461     0.00000000     0.00000000
       -0.00000748     3.28591995     0.00000000
       -2.00808910    -1.64299753     4.70658205
PRIMCOORD
6 1
Ti     -0.00017431     2.46456243     1.17664564    -0.00237647    -0.00816737     6.76646597
Ti      2.00820234    -0.82164021     3.52993656     0.00237647     0.00816737    -6.76646597
O       0.00004143     0.82147307     0.76666381     0.00170876     0.00294803    -1.22069107
O       2.00798650     0.82144905     3.93991844    -0.00170876    -0.00294803     1.22069107
O      -0.00001943    -0.82146560     3.11995474    -0.00071657    -0.00001543     0.51170705
O       2.00804725     2.46438772     1.58662747     0.00071657     0.00001543    -0.51170705
