# total energy = -19517.13011209 eV

CRYSTAL
PRIMVEC
        5.93400000     0.00000000     0.00000000
        0.00000000     9.29699974     0.00000000
        0.00000000     0.00000000     4.64899994
PRIMCOORD
23 1
Ti      4.44078500     6.89023901     2.32573401     0.93427290     0.98973316    -0.84721043
Ti      4.49357699     2.35931200     2.30365700    -0.18703497    -1.55088666     0.58401113
Ti      1.44769798     7.06738501     2.32888299    -0.70869940     0.27878302    -0.78962027
Ti      1.51219199     2.40223002     2.27866401     0.12700766    -2.30960637     0.49234587
Ti      3.02006500     4.51681602     0.02263402    -1.49667442     0.62323512     0.18447672
Ti      2.94709902     9.23999100     4.54177599    -2.77483455     1.17783642     0.72463587
Ti      5.92656898     4.71440900     0.09719102     1.31553704     0.84272720    -0.70281362
Ti      5.72539600     9.26001999     4.60814598     2.88240440     1.28117527     0.49834040
O       4.45918899     5.63569898     0.88078098     0.03634693    -0.21034897     0.32597178
O       4.28026299     1.02376102     0.86805897     1.11845703    -0.71764632    -0.66161579
O       1.62074900     5.66432101     0.93868001    -0.07486849    -0.77235351    -0.26232924
O       1.40528803     0.83322101     0.88980800     0.33596900     0.68398774    -0.06471315
O       4.33219100     8.29069702     3.64289101     0.95640497     0.17886657     1.41338710
O       4.53621502     3.64626801     3.95898800    -0.03142712    -0.19261915    -1.50437204
O       1.41498102     8.39682998     3.74148901     0.25604186    -0.42846884     0.03085685
O       1.57781801     3.83007402     3.65891598     0.11629412    -0.25690858     0.89106421
O       3.03251902     1.32477699     3.10135800    -0.07794251     0.66299468     0.52071389
O       0.23585298     6.02113099     3.35935800    -1.18699238     0.19849926    -0.68724996
O       0.06349598     1.30261700     3.21102998    -0.87187889     1.16828631    -0.37452811
O       3.04688000     7.87344002     1.52210602     0.01068757    -0.67569645    -0.05353476
O       2.98199900     3.41609300     1.51548199     0.55651420    -0.97662876     0.35746163
O       0.00681099     7.86543399     1.46234402    -0.64543147    -0.10033014    -0.14078646
O       0.09843099     3.29043001     1.45175799    -0.59015350     0.10536925     0.06550865
