# total energy = -19516.74001727 eV

CRYSTAL
PRIMVEC
        7.60600008     0.00000000     0.00000000
        0.00000000     7.60600008     0.00000000
       -1.89786986    -1.89786986     4.85670466
PRIMCOORD
23 1
Ti      3.81307399     6.84909902     1.27982502     0.67449728    -0.81907587     0.11671399
Ti      3.98409302     2.97745199     1.18293097    -1.36504134     0.50117247     1.13328896
Ti     -0.05514302     6.59465002     1.27055997    -0.94948098    -1.48862583     0.19218283
Ti     -0.06272301     2.77337701     1.02544301     3.85190014     0.63498867     0.73813931
Ti      5.74320620     2.69306621     3.60767881    -0.98468762     1.09517722     1.18631052
Ti      5.64997422    -1.20997177     3.76811281    -1.65467133     0.73793362    -2.29669069
Ti      1.96180220     2.87386724     3.55466081     0.88204144     0.40601745     1.49255319
Ti      1.76753023    -0.88686879     3.64381882     0.87009531     0.24042755    -0.75317384
O       4.03106501     4.90370899     0.73090401    -0.97753301    -1.45634202    -0.00682731
O       4.10532297     1.02716400     0.99142099    -0.65080764     1.19126993    -0.91485258
O       0.23221901     4.66697700     0.64768702     0.32278772     0.93374377     1.24508725
O      -0.17654798     0.76227200     0.79305799     0.34053991     2.23954044    -0.23176652
O       5.46959024     4.65058520     3.96097580     0.82543446    -0.57758080     0.70550274
O       5.51945625     0.93854321     4.03821779     0.45441720    -1.90824314    -1.02862342
O       2.00702024     5.00789722     3.95678382    -1.01531385    -3.27648910     0.88050649
O       1.60407621     0.93190024     4.10162381     0.33872857     2.51694895     0.85670449
O       3.84331822     2.91817223     3.28272382     0.18260419    -0.43198431    -1.17357585
O       3.73228423    -0.92637579     3.13060182     0.36112623     0.29736593     0.68860853
O      -0.19015678    -1.19527075     3.26363883     1.57014500     0.40271127    -0.02753241
O       5.67988300     6.60987302     1.58126201     0.63895023    -0.17070100     0.39468222
O       5.96276401     2.83461102     1.70985499    -2.73517758     0.50107091    -0.41863874
O       1.74721199    -0.48488998     1.80236798     0.25701657    -1.17021001    -1.15692023
O       1.98260501     2.85714799     1.74379298    -1.23757140    -0.39911661    -1.62167944
