# total energy = -19900.20171952 eV

CRYSTAL
PRIMVEC
        8.58657366     0.00000000     0.00000000
        0.00002812     3.91659031     0.00000000
        0.00000000     0.00000000    13.06809399
PRIMCOORD
24 1
Ti      3.11223648     2.32096781     4.84816967     0.18364317    -0.26699142     2.77736889
Ti      5.47436491     1.59562257     8.21992451    -0.18364317     0.26699142    -2.77736889
Ti      7.40537635     1.59562390     1.68582515     0.17890051     0.26711046    -2.77850069
Ti      1.18122505     2.32096660    11.38226915    -0.17890051    -0.26711046     2.77850069
Ti      3.11222261     0.36267271     1.68587758     0.18364317    -0.26699142    -2.77736889
Ti      5.47437879     3.55391772    11.38221672    -0.18364317     0.26699142     2.77736889
Ti      1.18121118     0.36267126     8.21987209    -0.17890051    -0.26711046    -2.77850069
Ti      7.40539022     3.55391918     4.84822209     0.17890051     0.26711046     2.77850069
O       2.71771458     1.37909802     6.66854838     1.52608913     0.95409149    -2.23773681
O       5.86888682     2.53749229     6.39954579    -1.52608913    -0.95409149     2.23773681
O       1.57564206     1.37911381     0.13454334    -1.52648945     0.95410434    -2.23864595
O       7.01095941     2.53747656    12.93355046     1.52648945    -0.95410434     2.23864595
O       5.86887301     0.57919714     0.13450095    -1.52608913    -0.95409149    -2.23773681
O       2.71772839     3.33739323    12.93359285     1.52608913     0.95409149     2.23773681
O       7.01094560     0.57918134     6.66859077     1.52648945    -0.95410434    -2.23864595
O       1.57565574     3.33740903     6.39950340    -1.52648945     0.95410434     2.23864595
O       0.31198705     2.38229223     3.53001824    -2.00592709     0.58642874     0.06346771
O       8.27461435     1.53429808     9.53807594     2.00592709    -0.58642874    -0.06346771
O       4.60528480     1.53426159     3.00407040    -2.00535425    -0.58648119    -0.06394027
O       3.98131659     2.38232878    10.06402359     2.00535425     0.58648119     0.06394027
O       0.31197324     0.42399707     3.00402870    -2.00592709     0.58642874    -0.06346771
O       8.27462815     3.49259330    10.06406529     2.00592709    -0.58642874     0.06346771
O       3.98130279     0.42403356     9.53811758     2.00535425     0.58648119    -0.06394027
O       4.60529861     3.49255681     3.52997654    -2.00535425    -0.58648119     0.06394027
