# total energy = -19518.58507183 eV

CRYSTAL
PRIMVEC
        7.60600008     0.00000000     0.00000000
        0.00000000     7.60600008     0.00000000
       -1.89786986    -1.89786986     4.85670466
PRIMCOORD
23 1
Ti      3.74824300     6.71205900     1.23071499     1.31231005    -0.51408918    -0.38791945
Ti      3.73606102     2.86117402     1.30334102     0.80648594     0.59847796     1.07349048
Ti      0.05789400     6.63884198     1.12080001    -1.51275436     0.15018616     0.17782656
Ti     -0.05044800     2.80659802     1.15760900    -0.26972476     0.01349290    -0.02278667
Ti      5.78514022     2.77410420     3.63705180    -2.10221649    -0.41165151     0.41910797
Ti      5.72458821    -1.01712477     3.50816481     0.39063813     0.71254782     0.21944528
Ti      1.86876924     2.86948824     3.68953682     2.22422875    -0.11187697     0.77283122
Ti      1.92127823    -0.92265980     3.65473781    -0.38245379     0.22768850     0.33560442
O       4.02822502     4.80140701     0.92971802    -1.46614898    -0.29976194    -0.45432644
O       3.64760100     1.00893998     0.81495800     0.09905281    -0.25692349    -0.27823306
O      -0.26798002     4.69259902     0.76584601     1.41642023     0.55615887     0.36557321
O       0.03227500     0.94270699     0.68476700     0.31418661    -0.92474285     0.33943228
O       5.78206925     4.68600621     3.97165582     0.46953426     0.32964692     0.18367016
O       5.56534825     0.86808321     4.06429083     1.05610698     0.83778399    -0.69651159
O       1.98727023     4.78535622     4.06485282    -0.74684892     0.18665779     0.11757428
O       2.01747821     0.99732121     4.11535083    -1.06654592    -0.24783695     0.22189657
O       3.79934724     2.81474925     3.37448781    -0.37565939     0.31583572    -1.66852213
O       3.80812623    -0.82896775     3.14569681    -0.12036675    -0.55232201     0.50696208
O       0.00216825    -0.91876479     3.14637881     0.34139995    -0.02443372     0.39793261
O       5.75346600     6.85278199     1.53143901    -0.39468119    -0.41065958     0.55040011
O       5.68667901     2.78337899     1.75940699     1.01504131    -0.42297311    -0.59255465
O       1.88605799     6.59613801     1.69110899     0.10527669    -0.14146343    -0.96183128
O       1.85275999     2.85361901     1.76792801    -1.11328140     0.39025812    -0.61906145
