# total energy = -39482.80328288 eV

CRYSTAL
PRIMVEC
        7.60629642    -0.00000847    -0.00005503
       -0.00000847     7.60629642    -0.00005503
       -3.80314186    -3.80314186     9.70738094
PRIMCOORD
47 1
Ti      1.90143651     4.65333106     6.09002135     0.00031367     0.22799960     0.13477522
Ti      3.81254804     6.65566970     1.21419102     0.18614485     0.00021597    -0.11566806
Ti      1.90144239     1.05151493     6.09008539     0.00000257    -0.22887506     0.13586845
Ti      3.79561271     2.85251819     1.21239763     0.01225697     0.00011159     0.05585878
Ti     -1.90171387     4.76225975     6.06236997     0.00010027    -0.00677974    -0.00733150
Ti     -0.00970531     6.65566932     1.21422301    -0.18559207    -0.00001980    -0.11554825
Ti     -1.90172660     0.94280841     6.06237497     0.00009076     0.00704277    -0.00737084
Ti      0.00722612     2.85251689     1.21243801    -0.01225337     0.00010053     0.05585904
Ti      3.80334801     0.94811985     8.50385587     0.04401987    -0.02764760    -0.03756126
Ti      5.70489958     2.85222122     3.63635003     0.00019026    -0.00010207     0.00280533
Ti      3.80335822    -2.85002030     8.50386502     0.04376508     0.02756532    -0.03760574
Ti      5.70484225    -0.95095449     3.63401972    -0.00015247     0.00005194     0.11031862
Ti      0.00010134     0.94811804     8.50387087    -0.04427184    -0.02772190    -0.03762065
Ti      1.90174669     2.85221183     3.66754281     0.00009385    -0.00007868    -0.14379517
Ti      0.00011154    -2.85002715     8.50389671    -0.04370646     0.02756069    -0.03774304
Ti      1.90168927    -0.95086048     3.54260082    -0.00015607     0.00046871    -0.25215281
O       1.90162367     2.85242083     5.62949904    -0.00007919    -0.00050625     0.21799338
O       3.80261546     4.75576362     0.79052025    -0.00871733    -0.00629278    -0.00120919
O       3.80261798     0.94896623     0.79054444    -0.00865922     0.00623441    -0.00121228
O      -1.90152661     2.85237312     5.65468268    -0.00007765    -0.00003188     0.05807559
O       0.00062829     4.75576684     0.79054860     0.00868776    -0.00628018    -0.00118914
O      -1.90153550    -0.95078050     5.64938434    -0.00015247    -0.00000540    -0.06365694
O       0.00063744     0.94897136     0.79057518     0.00866642     0.00622181    -0.00123413
O       3.79788503     2.85235963     8.90777077    -0.05047746     0.00009667    -0.05459920
O       5.70467103     4.75248842     4.06369001     0.00003497     0.00784058    -0.02383593
O       3.80568771    -0.95079444     8.91807928     0.04536687    -0.00000514     0.06573902
O       5.70467545     0.95221269     4.06372022     0.00002674    -0.00771331    -0.02391821
O       0.00517099     2.85236227     8.90778980     0.05055871     0.00005579    -0.05460922
O       1.90150679     4.84314550     4.11456506    -0.00007790    -0.04455903     0.03540487
O      -0.00263083    -0.95079094     8.91810442    -0.04534708     0.00001851     0.06576293
O       1.90151493     0.86155535     4.11457848    -0.00004294     0.04533319     0.03461066
O       1.90158381     0.92527563     8.07528324    -0.00008536     0.01583414     0.08757361
O       3.78672918     2.85240099     3.23218093     0.00961799     0.00008073     0.08475542
O       1.90158399    -2.82676069     8.07534481    -0.00006916    -0.01632908     0.08624435
O       3.80932096    -0.95073507     3.22267136     0.06035333    -0.00005142    -0.15543379
O      -1.90157270     0.95500552     8.06125973    -0.00005425     0.03189557    -0.05732354
O       0.01641142     2.85240238     3.23219746    -0.00976300     0.00006608     0.08471505
O      -1.90156522    -2.85647410     8.06129380    -0.00007559    -0.03188760    -0.05737059
O      -0.00614826    -0.95073018     3.22270680    -0.06061275    -0.00005888    -0.15524764
O       3.78079262     4.80243920     6.46605558     0.06348725     0.15044661     0.02184924
O       5.70471206     6.65544884     1.63463236    -0.00014732    -0.00003702    -0.06993198
O       3.78078532     0.90219476     6.46607187     0.06429920    -0.15045973     0.02180862
O       5.70471688     2.85230737     1.64186602     0.00003600     0.00005759     0.08382082
O       0.02231331     4.80244346     6.46607958    -0.06342708     0.15039211     0.02193357
O       1.90155751     6.65545528     1.60527607     0.00015967     0.00002854     0.00483059
O       0.02233184     0.90219586     6.46609806    -0.06426475    -0.15040805     0.02188318
O       1.90156837     2.85230465     1.64304187    -0.00001080     0.00013138     0.02068196
