# total energy = -4990.43160459 eV

CRYSTAL
PRIMVEC
        3.75078047     0.00000000     0.00000000
        0.37413399     3.73207421     0.00000000
       -2.06249050    -1.86606721     4.79284026
PRIMCOORD
6 1
Ti      0.28045677     2.79919763     1.19820983     0.00134854    -0.00134854     0.00000000
Ti      1.78196687    -0.93319092     3.59462986    -0.00134854     0.00134854     0.00000000
O       0.09357304     0.93301265     0.78071443    -0.00020209     0.00006505     0.13629629
O       1.96885049     0.93299396     4.01212536     0.00020209    -0.00006505    -0.13629629
O      -0.09355228    -0.93299387     3.17713446     0.00006505    -0.00020209     0.13629629
O       2.15597575     2.79900043     1.61570533    -0.00006505     0.00020209    -0.13629629
