# total energy = -19961.72093280 eV

CRYSTAL
PRIMVEC
        7.60600008     0.00000000     0.00000000
        0.00000000     7.60600008     0.00000000
       -1.89786986    -1.89786986     4.85670466
PRIMCOORD
24 1
Ti      3.69513398     6.72883900     1.27049901     0.78998177    -0.97423197     0.20640772
Ti      3.81898601     2.91475200     1.24236102     0.07545316     0.62191075    -1.21249696
Ti      0.07340202     6.56467599     1.18332997    -1.36754457     0.29873942    -0.05771383
Ti      0.04413402     2.74821601     1.11556798    -0.33052392    -0.03128442     1.28220962
Ti      5.71305924     2.78734221     3.62371680     0.79957816     0.29299017    -0.40121386
Ti      5.70948221    -1.03804875     3.57733981     0.10290896    -0.04666837    -0.37388302
Ti      1.94342123     2.96526520     3.61420182    -0.99068421    -0.67024596     1.10795047
Ti      1.84452621    -0.92182375     3.70160979     0.02657262     0.65372688     0.22709946
O       3.64002700     4.79669998     0.75121098     0.64567675     0.01302007     0.29699595
O       3.77902799     0.96361801     0.87579301    -0.06712690    -0.01035281     0.00711116
O       0.12613099     4.67936101     0.75936602    -0.30295268    -0.04133975    -0.45302006
O       0.06650001     0.87276902     0.82702202    -0.04448679     0.85072333    -0.44136550
O       5.79329823     4.73815520     4.03965679    -0.18998917    -0.41671427     0.14038357
O       5.61626923     0.86303422     3.99823681    -0.07734138     0.74995096     0.26383848
O       1.74658523     4.81188822     4.18840481     0.22423087    -0.13928751    -1.14352349
O       1.90059724     0.96406924     4.14573280     0.27384110     0.28253169    -0.82408155
O       3.80361622     3.04518224     3.18035882     0.24361494    -0.24254331     1.45917306
O       3.72227622    -1.01967678     3.23344683     0.71794354     0.07167801     0.01778458
O      -0.03003880     2.86966822     3.13231582     0.13482767    -0.28235505     0.14528152
O       0.01193522    -0.80090278     3.18807682    -0.07599181    -0.44790588     0.61096890
O       5.78791501     6.52808799     1.66339100    -1.37561963     0.05317352    -0.19287703
O       5.66230199     2.84683099     1.61941600     1.09491523    -0.11880712    -0.16865517
O       1.84227202     6.62780303     1.66046100     1.17572272     0.07092468     0.24975088
O       1.95732901     2.91747398     1.69955900    -1.48300617    -0.53763304    -0.74612464
