# total energy = -19073.61436915 eV

CRYSTAL
PRIMVEC
        5.17600016     0.00000000     0.00000000
        0.00000000     5.50899976     0.00000000
        0.00000000     0.00000000     9.26300011
PRIMCOORD
22 1
Ti      1.69744298     3.37326599     3.24788602     0.20145192     0.55519497     0.59269272
Ti      3.75284901     2.09438698     5.84633999    -0.99121669     1.82613904    -0.36798362
Ti      4.28514402     2.21095399     1.25773499     0.26095216     0.05623159    -1.90845654
Ti      0.88205899     3.08210198     8.03860799    -0.96900569     1.47150511     0.62338013
Ti      1.71988602     0.52645701     1.33253102    -0.79332394     0.00331158    -2.04206653
Ti      3.29573602     5.12467700     8.08178102    -0.15302029    -0.49034504     2.13331296
Ti      1.50479901     0.26176499     5.86927199    -0.32218069    -0.48543346     0.51546215
Ti      4.20590401     4.93667297     3.48517402     0.28307933    -0.03644617     0.27841124
O       3.09956599     3.61731799     4.63931298     1.11556814    -2.19790552    -0.24493932
O       0.94236599     1.98886798     0.24054001    -0.43694629    -0.42437719    -0.26187055
O       4.30196598     3.51688898     8.87602300     0.06207108     0.55019417    -0.82966907
O       3.38724998     0.88188997     0.28589399     0.16137715    -0.46725009    -1.25346699
O       1.70402499     4.83594297     9.07208301    -1.27837688    -0.73471126     1.16699202
O       3.44619799     0.56679302     4.89886998    -0.05906263     0.01049525    -1.24451904
O       0.78869398     4.85613500     4.42866398    -0.82703909    -0.21711766    -0.48101193
O       5.11634902     3.44096401     2.40520601     0.32000347     0.38810122     1.42579782
O       0.36943002     2.00677401     6.39916300    -0.06404955    -0.67799244    -0.33045141
O       2.54709701     2.02463697     2.19904797     0.14074352     0.64580248     1.67700574
O       2.09205902     4.18727798     6.97632800     0.32600700    -0.51368886    -2.02858006
O       4.97717102     0.66275302     2.05634300     1.63750047    -0.74341316     1.72604030
O       2.66402698     1.22855097     7.11241302     1.07263867     1.09100278     0.70559942
O       2.60300501     4.67060302     2.34107100     0.31282907     0.39070267     0.14832031
