# total energy = -19958.71235635 eV

CRYSTAL
PRIMVEC
        7.60600008     0.00000000     0.00000000
        0.00000000     7.60600008     0.00000000
       -1.89786986    -1.89786986     4.85670466
PRIMCOORD
24 1
Ti      3.64592700     6.73161802     1.27417097     2.45341851    -0.54384534    -0.14254818
Ti      3.75799500     2.90116400     1.15490400     0.24230728     0.22660503     2.53308263
Ti      0.17019002     6.67787102     1.20297901    -1.96173676     1.30758693     0.28614435
Ti     -0.09774798     2.75423900     1.18249599     0.56084008    -0.07991583    -0.29464416
Ti      5.73582021     2.84853420     3.75010280    -0.41229583    -2.41692606    -2.20668790
Ti      5.82639022    -1.09177776     3.48578283    -0.91570130     1.55019992     0.52624485
Ti      1.83547823     2.77272221     3.68331682     0.55551353     2.00735508    -2.03113754
Ti      1.90231924    -0.95646375     3.76958382     0.89573411    -1.57482184     0.60546262
O       3.91836402     4.94464000     0.71220098    -0.70496050    -1.22888775     1.18381655
O       3.76589101     1.03215599     0.80809700    -0.04148117    -1.63671500     0.43966446
O       0.23166898     4.78072502     0.76176198    -0.75428173     1.48764701     1.40484358
O      -0.16367399     0.94901902     0.61982097     0.56387296    -3.02499886    -0.13364111
O       5.92933620     4.63747325     3.80388282     0.52759108     3.01532303     1.14325661
O       5.83146821     0.98814120     4.15340481    -1.20770777    -0.47877455    -1.14128689
O       1.67325820     4.75249320     3.92976482    -0.18924972     1.71620583     0.91878997
O       1.81501923     1.00622821     4.14034683     1.07123870    -0.54303699    -0.37876117
O       3.77978223     3.09940020     3.09596383    -0.42042412    -0.67969168     0.56996287
O       3.80215722    -1.14095976     3.32928681     0.21052972     0.68476602    -1.28027538
O       0.05523023     2.64459421     3.32028381    -2.07595651     0.79871426    -0.63406153
O       0.13482521    -0.58879277     3.26358083    -2.98139063    -1.60330273    -1.18137143
O       5.66858898     6.74295797     1.58407098     1.05875651    -0.36929283     0.81626462
O       5.62851799     2.68810301     1.51797198    -0.00666096     0.74609893     0.57888949
O       1.88844998    -0.64376799     1.85481902     0.48162822    -0.27123117    -2.39531901
O       1.66394198     2.53868002     1.54448699     3.05041680     0.91093885     0.81331197
