# total energy = -19957.42169194 eV

CRYSTAL
PRIMVEC
        7.60600008     0.00000000     0.00000000
        0.00000000     7.60600008     0.00000000
       -1.89786986    -1.89786986     4.85670466
PRIMCOORD
24 1
Ti      3.70322298     6.77526700     1.26324299     0.79936604    -2.44517426    -1.03996148
Ti      3.77014798     2.89059802     1.08832302     1.14546391     2.57028110     0.79780127
Ti     -0.04105802     6.43225600     1.23252801    -0.81667137    -1.15033461    -1.19311161
Ti      0.11380999     2.65257299     1.15633601    -0.56756532     2.43070615    -0.53830795
Ti      5.76708422     2.79263123     3.55251082    -0.03965902     2.15646164     1.01606281
Ti      5.67034024    -1.02995377     3.69409981    -1.11589467    -2.13959700    -1.43768352
Ti      1.96223824     2.99985424     3.58236483     0.12172378     1.31086175     1.42015681
Ti      1.74341123    -0.86002876     3.69343580     1.27876409    -2.07152984    -1.74045545
O       3.82586902     4.86761598     0.57873602     0.14135905    -1.70647651     2.60394046
O       3.58180602     1.01567302     0.69179601     0.06452520     0.50756629     2.73476620
O       0.13563702     4.57232301     0.64214098    -0.76826365     0.45397883     1.23765753
O       0.02340900     0.72878201     0.75866999     0.22885269     3.10436371     1.73327847
O       5.60782425     4.71387925     4.08981083     0.49973779    -0.34602408     0.54684608
O       5.97901621     0.87818722     4.00512480    -0.41512893    -0.88872091     0.43451222
O       1.90555722     4.80096520     4.20208081     0.40657075     2.08136869    -0.08796827
O       1.84936421     0.99797622     4.03988581    -0.05654835     0.44918886    -0.91901725
O       3.87312121     3.28147025     3.40388980     0.19203782    -2.44646316    -1.88392409
O       3.73260021    -1.03264178     3.52699881     0.49051859     1.16446771    -1.89613992
O       0.09047624     3.37507525     3.54407483    -1.13882429    -2.66778457    -3.00990468
O      -0.02247379     6.27469924     3.31265181    -0.35260945     1.21177165    -1.13062169
O       5.65594800     6.37367698     1.54845799    -0.01737578     1.35200379     1.61477397
O       5.76016300     2.86864701     1.61721097     0.92514548    -1.01939702    -0.43898955
O       1.83871002     6.61798298     1.61340000     0.70140209     0.21336050     0.90776173
O       2.04661201     3.26302699     1.58433801    -1.70692671    -2.12487820     0.26852766
