# total energy = -19514.90832010 eV

CRYSTAL
PRIMVEC
        5.17600016     0.00000000     0.00000000
        0.00000000     5.50899976     0.00000000
        0.00000000     0.00000000     9.26300011
PRIMCOORD
23 1
Ti      2.00468302     3.21996800     3.39638702    -1.76450942    -1.75476005     3.22645156
Ti      3.42374400     2.28360600     5.83654201    -2.73874782     0.32497702    -1.63355023
Ti      4.33409000     2.07853003     1.57338002    -0.50819107    -0.89166148    -0.39603231
Ti      0.78900302     3.36991699     7.77090600     0.64446730     0.68472514     0.81874754
Ti      1.95543101     0.17861600     1.40443399    -1.59954506     0.88642208    -1.07850284
Ti      3.08640297     5.32097001     7.83877701     1.77240013    -0.40857981     0.07182765
Ti      0.65189499     0.56887401     5.90414202     0.97358071     0.03084605    -3.46275659
Ti      4.54307300     4.85088800     3.42408802     2.03542666     0.41956074     2.46700165
O       2.01114798     1.84451901     4.62213600    -1.21150477    -0.10153084     1.87658462
O       3.63262598     3.66991202     4.40877702     0.04878027    -2.08702152     1.44714004
O       5.11358302     2.52803699     0.03925500     1.02189073     1.19081896    -2.45386897
O       3.37124501     0.68390598     0.39532001     1.03970925     0.30854175    -2.22437324
O       1.76857398     4.70252802     8.87060300    -1.90073834    -1.00610569     2.42832890
O       4.31941899     0.62840698     4.82274000    -1.09219911     1.56270937    -0.27160013
O       1.09135600     4.73558001     4.55406602    -0.31199346    -0.62376066    -0.95248583
O       0.37419600     3.13398299     2.52039499    -0.63000998     1.92577112     0.25124032
O       5.15685400     2.50532799     6.38687799     0.51801757    -0.99837644     0.26918766
O       2.70902202     1.49214401     2.47328900    -0.18936567     2.33853489    -0.60129306
O       2.50421100     3.77924099     6.76655600     0.39672059    -0.39293901     0.91874035
O       0.04910400     0.64801099     2.23510902     2.01898290    -1.05772009    -1.27685581
O       5.05729602     5.00724400     7.09844401    -1.53031911    -1.19284061     2.37451441
O       2.11136500     1.13183499     7.08680798     1.20850841     1.30607615    -0.02061511
O       2.83105198     4.49658600     2.37552298     1.79863954    -0.46368706    -1.77783031
