# total energy = -19075.21798203 eV

CRYSTAL
PRIMVEC
        7.60600008     0.00000000     0.00000000
        0.00000000     7.60600008     0.00000000
       -1.89786986    -1.89786986     4.85670466
PRIMCOORD
22 1
Ti      3.78696698     6.71136900     1.10428899     0.22074394    -0.20535691     1.60590315
Ti      3.87262299     2.86861902     1.24520101     0.22493047     1.16110728     1.10870920
Ti      0.02181099     6.63075298     1.07435698    -0.48780479    -2.07605010     1.05562284
Ti      0.12874703     2.60646302     1.15391899    -0.65858935     2.10558617    -1.37341080
Ti      5.84201323     2.77531221     3.52841282    -0.74656944    -0.90434114     1.95067947
Ti      6.00294222    -1.15433275     3.61174083    -0.33957421     2.00467702     0.54530496
Ti      1.96337820     2.95242921     3.74103280     0.45266525    -0.60803964    -1.76401294
Ti      1.24063823    -0.65817278     3.88458081     0.99683892    -1.13027434    -1.72185943
O       3.66567500     4.78763999     0.71828901    -0.13541003     1.05671042     1.52079009
O       3.70966000     1.08018698     0.86407099     0.00093537    -1.00089895     1.09064514
O       0.14580802     4.63897003     0.63341702    -0.09546535     0.53557796     0.25107680
O       7.23211302     0.81664300     0.64088599     0.44820438     0.50313037     0.96063906
O       5.62742524     4.66008224     4.03420182     0.60256653    -0.07463041    -1.23311876
O       5.66084125     0.78274624     3.97583880     0.80720842     0.00882634    -0.59449815
O       2.02735620     4.94901720     4.21769683    -0.47467956     0.24269886    -1.89231463
O       2.09535823     1.03184621     4.08172680    -1.03708158    -0.61568533    -0.00637814
O       3.80965222     2.87670723     3.28049281     0.01660573     0.23528199    -0.92067176
O       0.13314221     2.89952122     3.10851480    -0.55571099    -0.36267918     1.02802564
O       5.74355303     6.41877002     1.79463601    -1.00823328     0.51374234    -1.20760672
O       5.78271701     2.96471401     1.62908799    -0.72459473    -0.37401723    -0.45824634
O       1.66822001    -0.77053198     1.99662302     0.98903536    -0.37806492    -0.14885176
O       1.88370400     2.92025201     1.51367199     1.50397944    -0.63730112     0.20357385
