# total energy = -4987.88379667 eV

CRYSTAL
PRIMVEC
        3.49193835     0.00000000     0.00000000
        0.00000000     4.47655413     0.00000000
        0.00000000    -0.00006574     5.02419102
PRIMCOORD
6 1
Ti      1.74596917     2.23824414     2.51209562     0.00000000     0.00000000     0.00000000
Ti      0.00000000     0.00000000     0.00000000     0.00000000     0.00000000     0.00000000
O       1.74596917     0.87240164     0.97914089     0.00000000     0.16141906     0.11305839
O       1.74596917     3.60408664     4.04505036     0.00000000    -0.16141906    -0.11305839
O       0.00000000     1.36581590     3.49123742    -0.00000000    -0.16103262     0.11276168
O       0.00000000     3.11067238     1.53295383    -0.00000000     0.16103262    -0.11276168
