# total energy = -4990.64925752 eV

CRYSTAL
PRIMVEC
        3.80312757     0.00000000     0.00000000
       -0.00000635     3.80312757     0.00000000
       -1.90159320    -1.90159638     4.85348938
PRIMCOORD
6 1
Ti     -0.00016466     2.85248913     1.21337229    -0.00003291     0.00003291    -0.00000000
Ti      1.90169242    -0.95095814     3.64011693     0.00003291    -0.00003291     0.00000000
O       0.00003747     0.95077377     0.79055570     0.00005476     0.00008459     0.00235153
O       1.90149019     0.95075706     4.06293347    -0.00005476    -0.00008459    -0.00235153
O      -0.00002294    -0.95075924     3.21730039     0.00008459     0.00005476     0.00235153
O       1.90155059     2.85229007     1.63618883    -0.00008459    -0.00005476    -0.00235153
