# total energy = -4986.96221281 eV

CRYSTAL
PRIMVEC
        3.17300593     0.00000000     0.00000000
        0.00000000     3.67467933     0.00000000
        0.00000000    -0.00005798     4.42266179
PRIMCOORD
6 1
Ti      1.58650302     1.83731053     2.21133090     0.00000000     0.00000000     0.00000000
Ti      0.00000000     0.00000000     0.00000000     0.00000000     0.00000000     0.00000000
O       1.58650302     0.71612952     0.86191163     0.00000000    -0.85032815    -1.06595226
O       1.58650302     2.95849149     3.56075011     0.00000000     0.85032815     1.06595226
O       0.00000000     1.12115758     3.07324350    -0.00000000     0.85002322    -1.06570569
O       0.00000000     2.55346348     1.34941829    -0.00000000    -0.85002322     1.06570569
