# total energy = -19893.81243460 eV

CRYSTAL
PRIMVEC
        8.61245203     0.00000000     0.00000000
        0.00003031     4.93567499     0.00000000
        0.00000000     0.00000000    13.02992008
PRIMCOORD
24 1
Ti      3.12161770     2.92487658     4.83400759     0.45742076    -0.57056888     2.57288203
Ti      5.49086484     2.01079881     8.19591303    -0.45742076     0.57056888    -2.57288203
Ti      7.42769612     2.01080056     1.68090070     0.44683861     0.57070490    -2.57516903
Ti      1.18478642     2.92487497    11.34902006    -0.44683861    -0.57070490     2.57516903
Ti      3.12160268     0.45703916     1.68095292     0.45743387    -0.56561977    -2.57377035
Ti      5.49087986     4.47863637    11.34896784    -0.45743387     0.56561977     2.57377035
Ti      1.18477141     0.45703721     8.19586081    -0.44643006    -0.56617538    -2.57492658
Ti      7.42771113     4.47863826     4.83405982     0.44643006     0.56617538     2.57492658
O       2.72590620     1.73793515     6.64906869     0.69295395     1.44750873    -2.25741604
O       5.88657634     3.19774018     6.38085193    -0.69295395    -1.44750873     2.25741604
O       1.58039165     1.73795504     0.13415031    -0.69299792     1.44824818    -2.25875456
O       7.03209096     3.19772036    12.89576991     0.69299792    -1.44824818     2.25875456
O       5.88656132     0.72990269     0.13410804    -0.69226001    -1.44759101    -2.25837841
O       2.72592122     4.20577271    12.89581217     0.69226001     1.44759101     2.25837841
O       7.03207594     0.72988280     6.64911096     0.69283157    -1.44765220    -2.25804982
O       1.58040647     4.20579260     6.38080959    -0.69283157     1.44765220     2.25804982
O       0.31292872     3.00215735     3.51970660    -2.31089321     0.74269685     0.12629469
O       8.29955382     1.93351804     9.51021402     2.31089321    -0.74269685    -0.12629469
O       4.61916537     1.93347189     2.99529510    -2.31095672    -0.74252741    -0.12697012
O       3.99331718     3.00220350    10.03462526     2.31095672     0.74252741     0.12697012
O       0.31291370     0.53431979     2.99525351    -2.31215716     0.74259349    -0.12703851
O       8.29956884     4.40135560    10.03466685     2.31215716    -0.74259349     0.12703851
O       3.99330216     0.53436594     9.51025554     2.31092972     0.74280792    -0.12728997
O       4.61918038     4.40130945     3.51966501    -2.31092972    -0.74280792     0.12728997
