# total energy = -19956.10867514 eV

CRYSTAL
PRIMVEC
        5.43564041     0.00000000     0.00000000
        1.14560560     5.67060164     0.00000000
        0.00000000     0.00000000     9.77809539
PRIMCOORD
24 1
Ti      2.64904294     3.36039328     3.62760377     0.55356386    -1.62168021     0.85264420
Ti      3.93220280     2.31020850     6.15049200    -0.55356386     1.62168021    -0.85264420
Ti      5.15460970     2.31021053     1.26140505    -1.04952830    -0.43147884     0.35420019
Ti      1.42663606     3.36039147     8.51669084     1.04952830     0.43147884    -0.35420019
Ti      2.07624027     0.52509267     1.26144425     0.55356386    -1.62168021    -0.85264420
Ti      4.50500548     5.14550927     8.51665164    -0.55356386     1.62168021     0.85264420
Ti      0.85383330     0.52509048     6.15045280     1.04952830     0.43147884     0.35420019
Ti      5.72741246     5.14551146     3.62764298    -1.04952830    -0.43147884    -0.35420019
O       2.12380162     1.99671526     4.98968738     0.96340377     1.27637347    -0.57177962
O       4.45744412     3.67388652     4.78840840    -0.96340377    -1.27637347     0.57177962
O       1.40082926     1.99673810     0.10067099    -0.22310165    -0.13931733     0.60624244
O       5.18041654     3.67386373     9.67742452     0.22310165     0.13931733    -0.60624244
O       3.88464144     0.83858574     0.10063924    -0.96340377    -1.27637347    -0.57177962
O       2.69660430     4.83201604     9.67745626     0.96340377     1.27637347     0.57177962
O       4.60761386     0.83856295     4.98971912     0.22310165     0.13931733     0.60624244
O       1.97363183     4.83203889     4.78837665    -0.22310165    -0.13931733    -0.60624244
O       0.89431159     3.44918130     2.64130760     0.09826734     0.58075766     0.54258396
O       5.68693414     2.22142048     7.13678817    -0.09826734    -0.58075766    -0.54258396
O       3.36409290     2.22136751     2.24777139     0.81607153     0.52670816    -0.10550037
O       3.21715284     3.44923427     7.53032422    -0.81607153    -0.52670816     0.10550037
O       0.32150891     0.61388052     2.24774015     0.09826734     0.58075766    -0.54258396
O       6.25973683     5.05672131     7.53035547    -0.09826734    -0.58075766     0.54258396
O       2.64435015     0.61393343     7.13681936    -0.81607153    -0.52670816    -0.10550037
O       3.93689558     5.05666834     2.64127636     0.81607153     0.52670816     0.10550037
