# total energy = -19960.71908715 eV

CRYSTAL
PRIMVEC
        5.93400000     0.00000000     0.00000000
        0.00000000     9.29699974     0.00000000
        0.00000000     0.00000000     4.64899994
PRIMCOORD
24 1
Ti      4.46548498     6.86454999     2.19523298    -0.38725276     0.68059723     0.22769595
Ti      4.43828098     2.29576602     2.27930898    -0.72223266     1.58469231     0.29876950
Ti      1.47085700     6.99201498     2.36070602     0.31066034     0.38099238    -0.36546831
Ti      1.44400703     2.27282401     2.38265401     0.47146310     0.38812591    -0.20668823
Ti      2.92132200     4.70888402     4.59706601     1.00747712    -1.07368434     0.17599902
Ti      2.97178900     0.08755698     0.04207001     0.86715449    -0.89922798    -0.50626068
Ti      0.06366902     4.59934100     4.61096300    -1.40527064    -0.42548662    -0.19401629
Ti      0.00446298     0.04891900     0.02071702    -0.83303748    -0.89582821    -0.42011430
O       4.37348100     5.51605200     0.86883898     0.97215272     0.69180338     0.31769822
O       4.42657701     0.85181202     1.02135099     0.53935414     0.30057698    -0.01315325
O       1.48829599     5.61400901     0.82093299    -0.30529650    -0.22940702     0.30951826
O       1.44919900     0.91508701     1.07384601     0.40236417    -0.31133243    -0.49675171
O       4.43331502     8.39748002     3.80667502     0.02847472     0.32082777     0.04739213
O       4.47104399     3.68531700     3.72375300     0.28963642     0.93386435     0.52736739
O       1.55108800     8.56559302     3.80216003    -0.75910332    -1.28886364    -0.99478024
O       1.45523903     3.76202701     3.69536798     0.13019840    -0.09879262     0.58241782
O       2.89253000     5.97593100     3.08621501     0.59880321     0.11262259     0.81777386
O       3.07148801     1.45320201     3.28418900    -0.84952160     0.04270090     0.23138986
O       5.91443902     6.06171302     3.29582402    -0.00191162     0.57559693    -0.93546435
O       5.86154400     1.44127298     3.35738099     0.96231850     0.25832474    -0.49223557
O       2.95256600     7.79559498     1.43528402     0.09836350     0.72525911     0.02171400
O       3.02058698     3.34893299     1.42570898    -0.37489989    -1.31393422     0.29695173
O       0.04312302     7.84593498     1.33192501    -0.46697653    -0.64584696     1.14413259
O       0.12060002     3.21141898     1.45707501    -0.57291784     0.18641893    -0.37388739
