# total energy = -19959.14901858 eV

CRYSTAL
PRIMVEC
        7.60600008     0.00000000     0.00000000
        0.00000000     7.60600008     0.00000000
       -1.89786986    -1.89786986     4.85670466
PRIMCOORD
24 1
Ti      3.57290203     6.75777801     1.32562500     3.79926090    -0.75583699    -0.86140267
Ti      3.82474499     2.93930498     1.17648702    -0.31619438     0.49815245     3.13619809
Ti      0.12495499     6.67795501     1.20173100    -3.58478659     0.64158844    -1.14602852
Ti     -0.07382001     2.76208500     1.17645300     0.82476341    -0.86822638    -1.70650814
Ti      5.75319421     2.83365522     3.71347680    -1.72850290    -1.23034685    -1.51872060
Ti      5.86705823    -1.09897176     3.47745782    -1.87047516     0.69350854     0.20145346
Ti      1.76836220     2.83575023     3.61391882     1.82801903     1.30092366    -0.15690754
Ti      1.87371425    -0.90472477     3.75169879     1.08532501    -1.11315541     1.70355368
O       3.82473801     4.79135000     0.71303401    -0.58248441     1.16085968     1.67628146
O       3.68624200     1.04222798     0.90021999     0.02714880    -1.74125712    -0.93866743
O       0.32954799     4.84825598     0.69048302    -1.23379367    -1.26305130     1.75893295
O      -0.06727901     0.82928901     0.55277501     0.18376761    -0.32226759     1.38461053
O       6.05915423     4.62145823     3.82165783    -0.30782544     2.04846550     0.42009322
O       5.80940421     0.85540920     4.06475683    -0.87806394     1.17830745     0.61750516
O       1.74213623     4.77172123     4.16143979    -0.29962825     1.55543134    -0.32904528
O       1.85436821     1.07728021     4.19690080     0.45907244    -2.60945290    -2.34942018
O       3.77081823     3.06159324     3.17709983    -0.17996443    -0.39768064     0.08573758
O       3.90108320    -1.12156075     3.29326879    -2.51823450     0.52320092    -1.05307102
O      -0.02062775     2.67896321     3.32403383    -0.49775830     0.19511749    -1.50317571
O       0.07383721    -0.78253779     3.24621583     0.37159602    -0.40723667    -0.46465225
O       5.71335902     6.77699698     1.59432501     0.83203500    -0.69014631     0.02713029
O       5.62237202     2.66245902     1.52886399     1.54636460     0.58668791     0.40998672
O       1.81189301     6.87174098     1.77563701     2.07756551     0.05803959     0.07341839
O       1.70703098     2.55901101     1.59795702     0.96279364     0.95837546     0.53269781
