# total energy = -19074.46980578 eV

CRYSTAL
PRIMVEC
        5.17600016     0.00000000     0.00000000
        0.00000000     5.50899976     0.00000000
        0.00000000     0.00000000     9.26300011
PRIMCOORD
22 1
Ti      1.98979700     3.46316299     3.23768401     0.02713698    -1.09271179     0.45903079
Ti      3.43133298     2.30275798     5.94687499     0.36835772    -0.20666895    -1.17747235
Ti      4.50334602     2.29110698     1.25406197    -0.99525178     0.37774944    -1.41997272
Ti      0.69066199     3.18307900     8.08589500    -0.39872091     0.93006915     1.70214857
Ti      1.91085699     0.48308898     1.27898199    -0.08613996     0.98748679    -1.24259328
Ti      3.02847802     5.00739302     8.00177498     1.88640778     1.51658453     1.43699215
Ti      0.49616098     0.23352301     6.09534398    -0.17786127     0.03278363    -1.35561824
Ti      4.57540298     4.99171598     3.36019500    -0.35492113     0.19686481     1.08811543
O       3.53802898     3.52946398     4.37759700     0.20883793    -0.69890503     1.79027059
O       0.95365398     1.97514398     0.17625899    -0.04333185    -0.24805370    -0.41747095
O       4.26475302     3.63345800     9.09439698     0.10610098     0.05400630    -0.54964961
O       3.39937602     0.84958402     0.20784998     0.81403599    -0.01948948    -1.67314755
O       1.64060299     4.65271101     9.16623698    -1.01210459     0.18269983    -0.11907863
O       4.44469101     0.88398398     4.85194498    -0.70878887    -0.24105978    -0.82476135
O       1.08611800     4.68436301     4.34373098    -1.10026570     0.68704170     1.95302508
O       0.25126098     3.62116400     2.37968898    -0.34344603    -1.15123681    -0.85353843
O       4.99185399     1.97864099     6.96710899     0.18610809    -0.77459011    -0.64181598
O       2.76859298     2.00557199     2.15514097    -0.08771142     0.34555922     1.45928362
O       2.45452200     3.55817799     7.10518499    -1.21818707    -2.76684433    -1.67813035
O       0.14075099     0.83449400     2.11114899     0.25730453    -1.27257261     1.44493146
O       2.22882801     0.60045700     6.43929998     1.46437338     1.42427289     1.05176336
O       2.84768699     4.64434303     2.25174397     1.20806746     1.73701403    -0.43231162
