# total energy = -39040.36268370 eV

CRYSTAL
PRIMVEC
        7.60629642    -0.00000847    -0.00005503
       -0.00000847     7.60629642    -0.00005503
       -3.80314186    -3.80314186     9.70738094
PRIMCOORD
46 1
Ti      1.91512097     4.75391674     6.22016183     0.04164032     0.00056153    -0.11038367
Ti      3.80696459     6.63332309     1.19292577    -0.03661098    -0.06137637    -0.06810058
Ti      1.82295177     0.95087557     5.96985414    -0.05816583    -0.00026765    -0.09221059
Ti      3.80706775     2.87480954     1.19287546    -0.03695345     0.06118456    -0.06789283
Ti     -1.90807969     4.75403837     6.06754166    -0.04167477     0.00013884     0.14209515
Ti     -0.00603856     6.67675233     1.23811098     0.03183695    -0.05450586    -0.02010783
Ti     -1.82044147     0.95083855     6.01874844     0.03252935     0.00006351     0.06331241
Ti     -0.00609823     2.83120897     1.23809646     0.03232392     0.05446190    -0.02001553
Ti      3.80395566     0.95077254     8.62965478    -0.08372698     0.00004011    -0.01566599
Ti      5.69036732     2.86832949     3.64054510    -0.01652217     0.01857468    -0.07983921
Ti      3.84055803    -2.85242259     8.52390938    -0.09837430     0.00033322     0.11777919
Ti      5.69030950    -0.96710564     3.64050017    -0.01616145    -0.01827824    -0.07931856
Ti      0.01601017     0.95058398     8.42419462     0.06642473     0.00033296    -0.07353923
Ti      1.91171524     2.78908924     3.59307807     0.01239889    -0.05866283     0.00072119
Ti     -0.03279467    -2.85263109     8.52337983     0.09956446     0.00032859    -0.00669104
Ti      1.91166569    -0.88737449     3.59324783     0.01233667     0.05742304     0.00009179
O       1.99686264     2.91423902     5.60177784    -0.00092971     0.01185176     0.01647075
O       3.82830766     4.75395919     0.74343305     0.04004418     0.00003291    -0.06608226
O       1.99687926    -1.01268356     5.60173721    -0.00109015    -0.01148178     0.01685770
O       3.77847825     0.95077007     0.79145590     0.01604678    -0.00003497     0.02543748
O      -2.02391069     2.82749102     5.66600578    -0.01767017    -0.03260649     0.00147967
O      -0.02653049     4.75394023     0.83416469    -0.03385450     0.00011699     0.04026375
O      -2.02390279    -0.92592208     5.66603300    -0.01763726     0.03260520     0.00151644
O       0.02224883     0.95079214     0.85665953    -0.01317922    -0.00008793     0.07230768
O       3.79817828     2.86910034     8.95918656     0.00657971    -0.02014254    -0.01448817
O       5.72509140     4.75388538     4.10516942     0.03240851     0.00017818    -0.00509079
O       3.79816654    -0.96750279     8.95923062     0.00652135     0.02003919    -0.01459821
O       5.66198295     0.95074981     4.01264019    -0.02323764     0.00002288     0.05487250
O       0.00658861     2.83351010     8.87813929     0.00646864    -0.03564347    -0.01861685
O       0.00662144    -0.93192454     8.87813460     0.00659308     0.03568693    -0.01862636
O       1.95467836     0.95087588     3.99438855     0.00493061    -0.00116137     0.10678618
O       2.01283140     0.95086830     7.97320579     0.03076300     0.00006273    -0.06377444
O       3.78387569     2.99848981     3.21385078    -0.03663078     0.03817601     0.04662235
O       1.89825275    -2.85234123     8.12903288    -0.00041575    -0.00012341    -0.02109925
O       3.78383400    -1.09685579     3.21391105    -0.03666986    -0.03812716     0.04654907
O      -2.00093854     0.95087972     7.99342010     0.01372584     0.00002905     0.01982013
O       0.01755863     2.93697402     3.27051383     0.03835933    -0.01238681     0.02421414
O      -1.89948095    -2.85230927     8.10538551    -0.00840237     0.00001080     0.00706025
O       0.01757664    -1.03541401     3.27054977     0.03844803     0.01241175     0.02428254
O       3.81690407     4.75394344     6.54061890    -0.03893603     0.00002185    -0.00074228
O       5.70002479     6.66980235     1.66224823    -0.00554690     0.02937744    -0.02379583
O       5.70003336     2.83793018     1.66223645    -0.00549625    -0.02921957    -0.02369452
O      -0.01873300     4.75388456     6.48920530     0.04691134     0.00005965    -0.05205355
O       1.90300055     6.61476094     1.60959138    -0.00206023    -0.03478267     0.08093064
O       0.01009249     0.95075465     6.42338471     0.01517157    -0.00003805    -0.03467802
O       1.90302241     2.89317617     1.60952756    -0.00208028     0.03480144     0.08163384
