# total energy = -4844.93550739 eV

CRYSTAL
PRIMVEC
        5.39096259     0.00000000     0.00000000
       -0.00000667     1.79698753     0.00000000
       -2.69551560    -0.89861069     6.11561565
PRIMCOORD
6 1
Ti     -0.00023072     1.34778350     1.52890354    -0.08205962    -0.05354993   153.10668305
Ti      2.69567089    -0.44940672     4.58671121     0.08205962     0.05354993  -153.10668305
O       0.00005692     0.44922740     0.99618365     0.08060000     0.05335170  -147.95793111
O       2.69538310     0.44914933     5.11943115    -0.08060000    -0.05335170   147.95793111
O      -0.00002473    -0.44930287     4.05399133    -0.00061244     0.00006453    -0.24117188
O       2.69546465     1.34767956     2.06162347     0.00061244    -0.00006453     0.24117188
