# total energy = -19957.05520587 eV

CRYSTAL
PRIMVEC
        5.38362471     0.00000000     0.00000000
        1.13464286     5.61633751     0.00000000
        0.00000000     0.00000000     9.68452510
PRIMCOORD
24 1
Ti      2.62369324     3.32823641     3.59288986     0.63300429    -1.58361579     0.84512861
Ti      3.89457407     2.28810124     6.09163562    -0.63300429     1.58361579    -0.84512861
Ti      5.10528330     2.28810325     1.24933419    -1.16992976    -0.43908930     0.43065814
Ti      1.41298404     3.32823461     8.43519141     1.16992976     0.43908930    -0.43065814
Ti      2.05637194     0.52006786     1.24937302     0.63300429    -1.58361579    -0.84512861
Ti      4.46189538     5.09626995     8.43515258    -0.63300429     1.58361579     0.84512861
Ti      0.84566264     0.52006569     6.09159679     1.16992976     0.43908930     0.43065814
Ti      5.67260468     5.09627212     3.59292869    -1.16992976    -0.43908930    -0.43065814
O       2.10347816     1.97760794     4.94193918     0.84066877     1.17264125    -0.57669917
O       4.41478915     3.63872971     4.74258631    -0.84066877    -1.17264125     0.57669917
O       1.38742419     1.97763056     0.09970763    -0.13050770    -0.20299793     0.57087844
O       5.13084318     3.63870714     9.58481758     0.13050770     0.20299793    -0.57087844
O       3.84746784     0.83056100     0.09967619    -0.84066877    -1.17264125    -0.57669917
O       2.67079947     4.78577665     9.58484902     0.84066877     1.17264125     0.57669917
O       4.56352186     0.83053843     4.94197062     0.13050770     0.20299793     0.57087844
O       1.95474540     4.78579928     4.74255487    -0.13050770    -0.20299793    -0.57087844
O       0.88575359     3.41617478     2.61603193     0.05110429     0.48942972     0.42069460
O       5.63251372     2.20016287     7.06849355    -0.05110429    -0.48942972    -0.42069460
O       3.33190062     2.20011041     2.22626162     0.82114252     0.40027412    -0.19263766
O       3.18636669     3.41622724     7.45826370    -0.82114252    -0.40027412     0.19263766
O       0.31843227     0.60800607     2.22623067     0.05110429     0.48942972    -0.42069460
O       6.19983504     5.00833163     7.45829465    -0.05110429    -0.48942972     0.42069460
O       2.61904537     0.60805847     7.06852444    -0.82114252    -0.40027412    -0.19263766
O       3.89922194     5.00827917     2.61600099     0.82114252     0.40027412     0.19263766
