# total energy = -4990.15677629 eV

CRYSTAL
PRIMVEC
        3.04193315     0.00000000     0.00000000
        0.23816407     4.76029909     0.00000000
       -0.00000131    -0.00006186     4.76774442
PRIMCOORD
6 1
Ti      1.64004784     2.38011845     2.38387210     0.00000000     0.00000000     0.00000000
Ti      0.00000000     0.00000000     0.00000000     0.00000000     0.00000000     0.00000000
O       1.56738091     0.92770000     0.92916310    -0.08585688    -0.22606870    -0.23349868
O       1.71271473     3.83253690     3.83858105     0.08585688     0.22606870     0.23349868
O       0.07266629     1.45239337     3.31303617     0.08564451     0.22626153    -0.23355807
O       0.16549636     3.30784375     1.45470798    -0.08564451    -0.22626153     0.23355807
