# total energy = -19516.95779524 eV

CRYSTAL
PRIMVEC
        5.93400000     0.00000000     0.00000000
        0.00000000     9.29699974     0.00000000
        0.00000000     0.00000000     4.64899994
PRIMCOORD
23 1
Ti      4.46533099     7.01730399     2.28317001     0.25327921     0.80278432     0.24617499
Ti      4.44830900     2.29881800     2.27025301     1.10234186    -1.41084530     0.86569873
Ti      1.36970398     7.21727500     2.21087101    -0.60242821    -0.53847328     0.00494500
Ti      1.47670801     2.29928198     2.36878899    -0.91299599    -1.02389079     0.34034014
Ti      3.10848999     4.43214898     0.15185498    -0.65914573     0.79094799    -0.39911121
Ti      2.94603802     9.21229699     4.55622300     1.06920136     0.73188201     0.10047284
Ti      0.06951600     4.64885199     0.07131801     0.48905280    -0.58726461    -0.83367794
Ti      0.02425902     0.06594300     0.05754099    -1.24568375     1.82580582    -0.29272406
O       4.44646201     5.58493701     0.98792900    -0.53025937    -0.88297269    -1.35703338
O       4.36390200     0.82129701     0.85035403    -0.13376863     0.75226753     0.79992731
O       1.70988399     5.59548902     0.81727002    -1.01507525     0.51090358     0.35583361
O       1.58314302     0.89941199     0.93500101    -0.73140713     0.04490742    -0.24359232
O       4.50644298     8.43077702     3.64148599    -0.99444985    -0.56885190     1.18951129
O       4.58338599     3.69726302     3.66161902    -1.28878779     1.11553883     0.68544247
O       1.31300502     8.27128601     3.97618002     1.58671422    -1.27296625    -1.96887106
O       1.26258199     3.77894999     3.55038500     1.69165307     0.48779553     0.93768990
O       2.93613500     1.32953397     3.24123299    -0.29880009     0.57418951    -0.23141145
O       5.85753902     6.18218498     3.06876200     1.14489595    -1.55024337     1.62028642
O       5.90810403     1.40806197     3.29483002     0.38269625     0.01581640    -0.62589699
O       2.92899899     8.01484798     1.57592001    -0.47867402    -1.09085468     0.02131497
O       2.98474501     3.24862999     1.50407198    -0.32550358    -0.08388201    -0.44388981
O       5.78229499     8.03627702     1.50486902     1.00728557    -0.06077345    -0.61164664
O       5.87527498     3.00060598     1.25704098     0.48985910     1.41817964    -0.15978255
