# total energy = -19075.06929719 eV

CRYSTAL
PRIMVEC
        5.17600016     0.00000000     0.00000000
        0.00000000     5.50899976     0.00000000
        0.00000000     0.00000000     9.26300011
PRIMCOORD
22 1
Ti      1.95260002     3.41600399     3.27860200     0.31710173     0.66025748    -0.40268093
Ti      3.48920598     2.23046200     5.87921899    -0.31420692     1.16168500     0.05096931
Ti      4.43132500     2.25824698     1.24746102     0.42875732     0.55898117    -1.19933111
Ti      0.60208301     3.29041202     8.11236699     1.06951143    -0.14306009     0.79002239
Ti      1.83199799     0.43108202     1.25864603     0.38099418     0.78808661    -1.66990924
Ti      3.18729400     5.16168502     7.94992000     0.10654553    -1.42161746     0.53275360
Ti      0.48697700     0.18088400     6.12279002     1.44100718     0.95052794    -1.83829291
Ti      4.55587401     5.05090102     3.37041002    -0.76074291    -0.59530316     1.14058035
O       3.53385700     3.55238000     4.40079200    -0.89914313    -0.46120029     1.07693344
O       0.92505703     2.03537700     0.26434399    -0.40501678    -0.71927795    -0.53210388
O       4.24968602     3.73412101     9.04434301     0.00416185    -0.68387796     0.28385684
O       3.47459201     0.78342898     0.16024202     0.30611540     1.09462906    -0.44861859
O       1.68934000     4.63193398     9.09186598    -0.88479175     0.89559295     0.10491005
O       4.59023000     0.99509999     4.67359298    -0.96465718    -0.45029469     0.59141437
O       0.82531003     4.59369198     4.53264599     1.16440317    -1.10766328     0.73126341
O       0.21924898     3.56120599     2.29603902     0.14069185    -0.60187670     0.69997615
O       5.02270502     1.90467101     6.88824999     0.62993285     0.06911591     0.56457230
O       2.69506301     1.95979202     2.30284302     0.42144716     0.20737729     0.14438241
O       2.49651698     3.35400600     7.15578698    -0.40035074    -0.19448294    -1.28677076
O       0.23700902     0.70036900     2.21788801    -0.48379978     0.73367613    -0.49297013
O       2.41936701     0.69306598     6.42604002    -1.00867937    -0.43367327     0.36618539
O       2.89805800     4.76138698     2.29651300    -0.28928032    -0.30760175     0.79285755
