# total energy = -19921.16400694 eV

CRYSTAL
PRIMVEC
        4.77682332     0.00000000     0.00000000
        1.95540106     4.69289934     0.00000000
        0.00000000     0.00000000     8.73274008
PRIMCOORD
24 1
Ti      2.89013760     2.78100789     3.23978428     5.25126264    -3.87658017     1.24835255
Ti      3.84208686     1.91189158     5.49295589    -5.25126264     3.87658017    -1.24835255
Ti      4.91633447     1.91189318     1.12655089   -10.66006737     2.75233867     3.02474407
Ti      1.81589002     2.78100648     7.60618933    10.66006737    -2.75233867    -3.02474407
Ti      1.91243716     0.43455820     1.12658590     5.25136188    -3.87583172    -1.25626770
Ti      4.81978732     4.25834141     7.60615433    -5.25136188     3.87583172     1.25626770
Ti      0.83818947     0.43455647     5.49292084    10.65921273    -2.75204634     3.03829122
Ti      5.89403501     4.25834314     3.23981929   -10.65921273     2.75204634    -3.03829122
O       2.20042468     1.65244968     4.45625043    -2.48332456    -0.77714064    -1.31260573
O       4.53179972     3.04044980     4.27648974     2.48332456     0.77714064     1.31260573
O       1.56508272     1.65246865     0.08990846     2.41030109    -0.19539646    -2.44991049
O       5.16714180     3.04043091     8.64283143    -2.41030109     0.19539646     2.44991049
O       3.55409927     0.69400001     0.08988011     2.48296050     0.77743478    -1.31245558
O       3.17812518     3.99889946     8.64285979    -2.48296050    -0.77743478     1.31245558
O       4.18944129     0.69398109     4.45627874    -2.41069936     0.19513806    -2.45034373
O       2.54278308     3.99891845     4.27646139     2.41069936    -0.19513806     2.45034373
O       1.36293883     2.85448754     2.35893097    -0.27507189    -4.67011880    -4.39246527
O       5.36928558     1.83841194     6.37380920     0.27507189     4.67011880     4.39246527
O       3.32797126     1.83836827     2.00746689     2.61487922    -4.20645412    -5.16086030
O       3.40425314     2.85453122     6.72527314    -2.61487922     4.20645412     5.16086030
O       0.38523837     0.50803771     2.00743897    -0.27504438    -4.67050961     4.39171811
O       6.34698609     4.18486176     6.72530102     0.27504438     4.67050961    -4.39171811
O       2.42655269     0.50808143     6.37383703    -2.61578913     4.20669657    -5.16111356
O       4.30567172     4.18481805     2.35890310     2.61578913    -4.20669657     5.16111356
