# total energy = -4963.51502791 eV

CRYSTAL
PRIMVEC
        5.51931896     0.00000000     0.00000000
       -0.00000763     2.65744970     0.00000000
       -2.75969040    -1.32879909     5.94608302
PRIMCOORD
6 1
Ti     -0.00023579     1.99317539     1.48652044    -0.01442261    -0.01628614    26.46300066
Ti      2.75985666    -0.66452496     4.45956184     0.01442261     0.01628614   -26.46300066
O       0.00005873     0.66434968     0.96856820     0.01219963     0.01551147   -20.39716647
O       2.75956197     0.66430064     4.97751415    -0.01219963    -0.01551147    20.39716647
O      -0.00002255    -0.66437990     3.94160959    -0.00164833    -0.00049134    -1.86752944
O       2.75964319     1.99303022     2.00447275     0.00164833     0.00049134     1.86752944
