# total energy = -19959.00593806 eV

CRYSTAL
PRIMVEC
        7.60600008     0.00000000     0.00000000
        0.00000000     7.60600008     0.00000000
       -1.89786986    -1.89786986     4.85670466
PRIMCOORD
24 1
Ti      3.87470599     6.63694102     1.10415098     1.60397405     0.85763266    -0.61428434
Ti      3.68615199     2.76703000     1.22765301     1.53406033    -0.83593640    -1.03869161
Ti      0.13426502     6.77484699     1.25393402    -1.51264611    -1.49972760     0.05683220
Ti     -0.09657099     2.75222601     1.24220200    -1.29120643     1.42442742     3.40125604
Ti      5.58808821     2.87856321     3.76335879     4.05731337     0.03175545     0.68302512
Ti      5.67646520    -0.86189575     3.62762779     1.80435433    -0.80071741     0.24309044
Ti      2.01801321     2.78798521     3.68392183    -2.81679651    -0.98385613    -0.43807295
Ti      2.01932123    -0.96277980     3.50750180    -1.10286328     1.08412276     1.44845387
O       3.87734902     4.54629400     0.76180500    -0.56382333     3.34500465     0.30654169
O       3.94152901     0.93750597     0.58556199     0.02136742    -0.14016785     0.61018008
O      -0.28759699     4.67372797     0.85549901     1.20632323     0.92108725     0.11979957
O      -0.11750100     0.88511102     0.78273502    -0.32596047     1.06973718    -0.19183471
O       5.83339124     4.74744723     4.25558381    -0.20795990    -0.00550293    -2.64206736
O       5.66358625     0.87841624     4.31358380    -0.18388537     0.24212730    -3.71533081
O       1.67109122     4.76453823     4.02155781     0.96616822    -0.70670293    -0.88043655
O       1.95614022     0.94127525     4.06239580    -0.07716398    -0.69618249    -0.63723633
O       3.86611824     2.70300220     3.30982780    -3.31925402     0.40407472    -0.92633693
O       3.91301721    -0.78468276     3.00928682    -1.43339054    -0.91647212     1.30515596
O      -0.09666375     2.65428424     3.30077284     0.51756634     0.35781902    -0.04579008
O      -0.09130779    -0.67439576     3.18187682     1.14008284    -0.94869320     0.31501939
O       5.74081702     6.70479101     1.43826402    -1.52586699    -0.39615675     0.61342662
O       5.60131002     2.83811999     1.66701502    -0.26654842    -0.50978361     0.52443556
O       1.98526597    -0.51030298     1.61989898    -0.09232269    -1.59217216     0.07443681
O       1.79508502     2.72202300     1.55228601     1.86847844     0.29428343     1.42842780
