# total energy = -19073.34475904 eV

CRYSTAL
PRIMVEC
        5.17600016     0.00000000     0.00000000
        0.00000000     5.50899976     0.00000000
        0.00000000     0.00000000     9.26300011
PRIMCOORD
22 1
Ti      2.15150500     3.49274300     3.36491901     0.02031558    -1.02405971    -1.64827417
Ti      3.50545299     2.02813499     5.84419799    -0.62572807     1.27851675    -1.55578204
Ti      4.55067601     2.32427200     1.21210600    -0.17268101    -0.07111005    -0.86120675
Ti      0.46394102     2.94376102     7.91118602    -2.10013646    -1.34490780     2.56247318
Ti      1.93280202     0.42441301     1.36589898     0.53422350     0.81321863    -1.20480036
Ti      2.92012199     5.23749500     7.98307899     0.44565745     0.02458156     2.75848644
Ti      0.66502202     0.21545902     6.06651599     0.10285085    -0.30128867    -0.53259933
Ti      4.72881898     5.02111702     3.37973301    -0.20332806    -1.07776956    -1.62358386
O       3.66276998     3.47857899     4.48602600     0.40251303    -0.70956843     1.24218833
O       0.98902201     1.96156000     0.08133603    -0.86013717     0.12018523     0.96963458
O       4.15357002     3.64676998     8.83461398     0.27138852    -0.31763343    -0.01430100
O       3.45495202     0.81230301     0.18301399     0.69726647     0.64498846    -0.37648189
O       1.63758599     4.73594398     0.04932101    -0.06935116    -0.31834331    -1.94404293
O       4.33046900     0.65805599     4.76414701    -0.19137268     1.17832416     1.60965156
O       1.20435699     4.79221198     4.30322802    -0.45627996     0.85696546     2.35846583
O       0.52781599     3.74856802     2.24045599    -1.46771478    -1.49494072    -0.09944954
O       4.63262302     1.41227899     7.20211999     0.99275318    -0.97036118    -0.84661882
O       2.74757602     2.01064600     2.24921303     1.25696498     0.75521967     0.27949007
O       1.34101500     4.01514101     6.88337002     2.59162333     3.18120501    -2.36327354
O       0.30864200     0.87788400     2.16495203    -1.75081520     0.27176622     1.25938567
O       2.09781700     1.34116899     6.97017102    -0.42002071    -1.62063634    -0.42987447
O       3.04797502     4.76356698     2.35080601     1.00200915     0.12564832     0.46051329
