# total energy = -19518.07499652 eV

CRYSTAL
PRIMVEC
        5.93400000     0.00000000     0.00000000
        0.00000000     9.29699974     0.00000000
        0.00000000     0.00000000     4.64899994
PRIMCOORD
23 1
Ti      4.50464499     6.99477300     2.25360599     0.69535819     0.04287213     0.54929865
Ti      4.44073700     2.30981800     2.30473399    -0.57597412    -0.33659121     0.66175669
Ti      1.51536499     7.06756699     2.23922798    -0.58042598     0.38374372     0.35993452
Ti      1.41537102     2.34050197     2.34035201     0.75426219    -1.07484416     0.17006877
Ti      2.92797201     4.53376599     0.12231001     0.69761099    -0.14228799     0.57796672
Ti      2.98410402     0.02864299     4.59961898    -0.45158667     0.00554201    -0.43868538
Ti      5.92636900     4.62143299     0.01025302    -0.49189335     0.81900850    -0.69932335
Ti      5.91423301     0.07328401     4.63236801     0.42633200    -0.39068930    -0.02435401
O       4.43181602     5.48975099     1.04729999    -0.19627295     0.15983577    -0.57934766
O       4.46251201     0.99774598     0.89993402     0.04357122    -0.74055075    -0.24355478
O       1.48812998     5.53821601     0.99454001     0.57429081     0.05763953    -0.39519130
O       1.46913501     0.96508299     0.86194698    -0.14801075    -0.42422395     0.28494981
O       4.40471903     8.45684699     3.62060402     0.52802611    -0.54021057     0.94900558
O       4.49056798     3.62222198     3.85616801    -0.45517002     0.72986010    -0.52950527
O       1.49432803     8.36487900     3.67117802    -0.03889566    -0.08876043     0.58553014
O       1.56786901     3.70840903     3.78112502    -0.59354581     0.31263932    -0.41673073
O       2.97243597     1.38147098     3.23860202    -0.11408272     0.56796641    -0.50308023
O       5.93276501     5.98031201     3.28168002     0.04462820     0.35450049     0.05816660
O       5.90873401     1.35711797     3.28575299     0.24308812     0.88784107    -0.98886901
O       3.05669798     8.01403300     1.40681899    -0.74332600    -1.69114065     0.59129815
O       2.91573601     3.22701003     1.40376199     0.26476125    -0.39651516     0.88477760
O       0.00425199     7.81609102     1.45479298     0.16047546     0.87990999    -1.12403787
O       0.01567799     3.15637502     1.41145501    -0.04322000     0.62445486     0.26992659
