# total energy = -19960.91911717 eV

CRYSTAL
PRIMVEC
        7.60600008     0.00000000     0.00000000
        0.00000000     7.60600008     0.00000000
       -1.89786986    -1.89786986     4.85670466
PRIMCOORD
24 1
Ti      3.71027401     6.73492300     1.29313399     2.51067186    -0.77945952    -0.94545952
Ti      3.83571902     2.89897898     1.18475399    -0.39917703     1.10617255    -0.18484336
Ti      0.09657601     6.52698698     1.15624298    -2.06437652     1.09844921     0.55391276
Ti     -0.00327799     2.81049800     1.19418001     1.10323249    -1.01447592    -0.10100454
Ti      5.71928522     2.72592722     3.58621380    -0.23633743    -0.17784070     0.12054776
Ti      5.63475223    -1.06290177     3.59824782     1.12776623     0.02490089     0.30187153
Ti      1.91414524     2.97746723     3.59377479     0.46470444    -0.47664414     0.39236514
Ti      1.85360424    -0.87174877     3.64651884    -0.85653505     0.46812633     1.17775003
O       3.72568100     4.86971702     0.85514499     0.05427755    -0.21939720    -0.41492144
O       3.73298100     1.10565802     0.98870498     0.41040092    -2.14019915    -1.24977797
O       0.07660201     4.64529301     0.78581599     0.49446857     1.00220918     0.10146297
O       0.05423199     0.81464599     0.72771799     0.13978682    -0.34045455     0.16232177
O       5.69018423     4.57880924     4.01740181     0.58877127     1.25041201     0.33119061
O       5.55608320     0.86993724     4.16188980     0.54612334     0.40572229    -1.61806935
O       1.78176922     4.81342521     4.04939883     0.16073617     1.15446997     0.62977113
O       1.91012921     1.00143022     4.00684483     0.17375573     0.04611815     1.18006994
O       3.84246725     2.98076824     3.39882282     0.16373254    -0.51892723    -1.42196224
O       3.81109323    -0.83253779     3.28074782    -0.66437562    -0.56437587    -0.26657902
O       0.09046920     2.79217423     3.15323282    -1.27320510    -0.10238342     0.62769547
O      -0.05871375    -0.82859479     3.20582680     1.08452565    -0.45381376    -0.01399940
O       5.72379699     6.49904002     1.63893899    -0.28070621     0.37231439    -0.16905755
O       5.79960898     2.76248501     1.53179700    -1.66086127     0.15420454     1.30444967
O       1.94644701     6.78040002     1.77551101    -1.43078087    -0.52465565    -1.01905532
O       1.98575202     2.87859501     1.61072099    -0.15659798     0.22952761     0.52132118
