# total energy = -19960.61523323 eV

CRYSTAL
PRIMVEC
        7.60600008     0.00000000     0.00000000
        0.00000000     7.60600008     0.00000000
       -1.89786986    -1.89786986     4.85670466
PRIMCOORD
24 1
Ti      3.74144699     6.57591201     1.26756801     0.31262878    -1.43045409    -0.29229494
Ti      3.71884303     2.74543301     1.23123798     0.02234829     1.53224050     0.00707105
Ti      0.07122599     6.74400098     1.22328201    -0.10646248    -0.10670185     0.15524712
Ti     -0.01623802     2.95849602     1.09221698     0.02136896    -0.14002207     0.61584166
Ti      5.71744421     3.08479824     3.60319282     0.67434584    -1.07619296    -0.62091213
Ti      5.71696425    -0.88380078     3.59047579     0.53860723     0.49818716     0.18529536
Ti      1.81031320     2.72578820     3.63401480    -0.08403988     0.08298958     0.29041804
Ti      1.88770622    -1.13022979     3.73026283    -0.25962109     0.18346679    -0.76618157
O       3.60121100     4.72195100     0.73340802     0.61953685    -0.94329208     0.25323087
O       3.70820598     0.86655299     0.99541098     0.49452488     0.04793901    -1.22892529
O       0.15775901     4.74755000     0.82510100    -0.33135593     2.21079061    -1.05697910
O       0.20387099     1.07155901     0.76090899    -1.10821941    -1.52435878    -0.32912370
O      -1.45782279     4.85980024     4.09325482    -1.72148842    -0.40068009     0.57098077
O       5.75851721     1.05340622     3.94340082    -0.79471311    -0.73107469     0.15315090
O       1.62583323     4.65009920     4.13163483     0.90025771     1.76854194    -0.12382875
O       2.00615821     0.86569122     4.02346280    -0.10545178    -0.76441034     0.55575033
O       3.73510824     2.90005321     3.11861283     1.47519644     0.34653933     1.20321528
O       3.80983823     6.25672325     3.21608580     0.31902054     0.79287169     0.70031014
O      -0.03670178     2.92335621     3.24139481     0.29766187    -0.92218151    -0.61878763
O      -0.01030779    -0.88177879     3.24962182     0.61545393     0.38535966    -0.72056581
O       5.73056802     6.57067898     1.52281501     0.18624641     0.49601072     0.58738956
O       5.78176899     3.18942098     1.59802301    -1.30711231    -0.98701370     0.36120362
O       1.89419399     6.49111601     1.71893101    -0.31433882     0.61335231     0.70263956
O       1.89357702     2.81091901     1.65986599    -0.34439477     0.06809312    -0.58414560
