# total energy = -19074.57825231 eV

CRYSTAL
PRIMVEC
        7.60600008     0.00000000     0.00000000
        0.00000000     7.60600008     0.00000000
       -1.89786986    -1.89786986     4.85670466
PRIMCOORD
22 1
Ti      3.76045001     6.49455402     1.18156400    -0.85332837    -1.26149141     0.42673001
Ti      3.75245801     2.72180900     1.19843798     0.24578753     2.27540503     0.14478376
Ti     -0.00003900     6.68606502     1.23215901     0.24667970    -0.50238320    -1.92958587
Ti     -0.06174599     2.95936101     1.15428597    -0.36588046     0.10544869     1.25062721
Ti      5.69386021     2.92205825     3.52922083     0.91252419     0.89384100     0.87899699
Ti      6.09400320    -0.79341376     3.68943379    -1.05158698    -1.75505752    -0.12665773
Ti      1.91860425     2.67027222     3.54104979    -0.99578040     1.73760795     0.80584934
Ti      1.96652522    -1.06391377     3.81222180    -1.54714159    -0.29440505    -1.28768942
O       3.35374898     4.67398198     0.68645402     1.40960269    -0.16382973     0.05233920
O       3.74120098     0.90323302     1.09856297     0.40141029    -0.90972606    -1.37939402
O       0.12834099     4.72789202     0.69101500    -0.75489005     1.71915565    -0.22941242
O       7.27620603     1.16753202     0.63190998     0.46317978    -2.39146801     1.81967914
O      -1.48977176     4.86911921     4.11347082    -1.26800941     0.68080806     0.38428699
O       5.54879521     0.95422522     3.98663783     0.68370621     2.03333866    -1.34687649
O       1.76173621     4.65939023     4.16258583     0.92119498     1.51279267    -0.58330408
O       1.95199221     0.85104921     3.88143379     0.25143136    -0.48072808     1.12236922
O       3.79942524     3.02768023     3.15925380    -0.65019109    -0.43551187     0.93007197
O      -0.04488878     3.10941324     3.13268884     0.46710714    -1.80731599    -0.68282406
O       5.55051499     6.52475999     1.87164199     1.01507833     0.06299514    -0.25473677
O       5.58241702     3.27767801     1.61706302     0.77980945    -1.01377067    -0.61915658
O       1.70405002     6.49821403     1.84078699     1.19752928     0.71016621     0.90929128
O       1.92261800     2.82423401     1.63108298    -1.50823204    -0.71587149    -0.28538793
