# total energy = -19947.28164778 eV

CRYSTAL
PRIMVEC
        6.45804513     0.00000000     0.00000000
        0.00002728     5.08027484     0.00000000
        0.00000000     0.00000000    10.28220271
PRIMCOORD
24 1
Ti      2.34074693     3.01056621     3.81462387     0.33071315    -0.08252216     0.14593561
Ti      4.11732554     2.06970881     6.46757890    -0.33071315     0.08252216    -0.14593561
Ti      5.56965796     2.06971057     1.32643643     0.33188635     0.08262140    -0.14489509
Ti      0.88841451     3.01056467     8.95576645    -0.33188635    -0.08262140     0.14489509
Ti      2.34073341     0.47042890     1.32647766     0.33074323    -0.08971174    -0.14485343
Ti      4.11733907     4.60984629     8.95572523    -0.33074323     0.08971174     0.14485343
Ti      0.88840098     0.47042696     6.46753767    -0.33157961    -0.08986343    -0.14530569
Ti      5.56967149     4.60984823     3.81466509     0.33157961     0.08986343     0.14530569
O       2.04402170     1.78885117     5.24692934     0.90224646     0.68124643    -0.36766429
O       4.41405083     3.29142385     5.03527343    -0.90224646    -0.68124643     0.36766429
O       1.18505790     1.78887166     0.10586106    -0.90125555     0.68075972    -0.36799982
O       5.27301469     3.29140341    10.17634142     0.90125555    -0.68075972     0.36799982
O       4.41403730     0.75128637     0.10582770    -0.90221098    -0.68141715    -0.36747274
O       2.04403523     4.32898865    10.17637478     0.90221098     0.68141715     0.36747274
O       5.27300116     0.75126593     5.24696270     0.90174818    -0.68149506    -0.36834692
O       1.18507131     4.32900914     5.03524007    -0.90174818     0.68149506     0.36834692
O       0.23465232     3.09011114     2.77747947    -0.86650400     0.11066778     0.27938414
O       6.22342021     1.99016388     7.50472330     0.86650400    -0.11066778    -0.27938414
O       3.46368185     1.99011649     2.36365461    -0.86591727    -0.11059322    -0.27923451
O       2.99439068     3.09015858     7.91854799     0.86591727     0.11059322     0.27923451
O       0.23463880     0.54997372     2.36362177    -0.86654153     0.11045412    -0.27943428
O       6.22343373     4.53030136     7.91858083     0.86654153    -0.11045412     0.27943428
O       2.99437715     0.55002110     7.50475608     0.86654436     0.11013376    -0.27957749
O       3.46369538     4.53025391     2.77744663    -0.86654436    -0.11013376     0.27957749
