# total energy = -19940.42621259 eV

CRYSTAL
PRIMVEC
        5.91693169     0.00000000     0.00000000
        0.93935896     6.22695020     0.00000000
        0.00000000     0.00000000    10.62008118
PRIMCOORD
24 1
Ti      2.70126638     3.69008486     3.93997440     0.02586428    -1.54821245     0.79290331
Ti      4.15502420     2.53686516     6.68010701    -0.02586428     1.54821245    -0.79290331
Ti      5.48566739     2.53686727     1.37002383    -0.10835018    -0.04256643    -0.26651500
Ti      1.37062321     3.69008300     9.25005770     0.10835018     0.04256643     0.26651500
Ti      2.23158703     0.57660987     1.37006642     0.02586428    -1.54821245    -0.79290331
Ti      4.62470356     5.65034033     9.25001511    -0.02586428     1.54821245     0.79290331
Ti      0.90094383     0.57660759     6.68006442     0.10835018     0.04256643    -0.26651500
Ti      5.95534676     5.65034261     3.94001699    -0.10835018    -0.04256643     0.26651500
O       2.20351047     2.19261495     5.41934618     1.55476620     1.68389322    -0.41124450
O       4.65278010     4.03433508     5.20073517    -1.55476620    -1.68389322     0.41124450
O       1.41652224     2.19264012     0.10933968    -0.89316686     0.49727596     0.57222622
O       5.43976840     4.03430996    10.51074143     0.89316686    -0.49727596    -0.57222622
O       4.18310074     0.92085991     0.10930523    -1.55476620    -1.68389322    -0.41124450
O       2.67318983     5.30609011    10.51077588     1.55476620     1.68389322     0.41124450
O       4.97008904     0.92083479     5.41938069     0.89316686    -0.49727596     0.57222622
O       1.88620148     5.30611529     5.20070073    -0.89316686     0.49727596    -0.57222622
O       0.78634717     3.78758409     2.86874892     0.37337908     0.74031703     0.98997381
O       6.06994340     2.43936587     7.75133249    -0.37337908    -0.74031703    -0.98997381
O       3.54143218     2.43930796     2.44132557     0.64563947     1.04297378     0.26122906
O       3.31485839     3.78764200     8.17875567    -0.64563947    -1.04297378    -0.26122906
O       0.31666780     0.67410892     2.44129160     0.37337908     0.74031703    -0.98997381
O       6.53962277     5.55284104     8.17878957    -0.37337908    -0.74031703     0.98997381
O       2.84517903     0.67416683     7.75136633    -0.64563947    -1.04297378     0.26122906
O       4.01111154     5.55278313     2.86871502     0.64563947     1.04297378    -0.26122906
