# total energy = -39040.36376399 eV

CRYSTAL
PRIMVEC
        7.60629642    -0.00000847    -0.00005503
       -0.00000847     7.60629642    -0.00005503
       -3.80314186    -3.80314186     9.70738094
PRIMCOORD
46 1
Ti      1.90883838     4.74735561     6.07356135     0.05459534    -0.03588079    -0.02678396
Ti      3.80307993     6.64549890     1.20134209     0.00043812    -0.03590418     0.06725314
Ti      1.81326325     0.96054538     6.01241390     0.01072742    -0.00594028     0.05205020
Ti      3.80292266     2.85879345     1.20483458     0.00027562     0.05530651    -0.03073806
Ti     -1.90919711     4.74731849     6.07358370    -0.05445084    -0.03593169    -0.02679605
Ti     -0.00003803     6.68823912     1.37925514     0.00029902    -0.12731156    -0.12906583
Ti     -1.81316458     0.96050760     6.01259472    -0.01118842    -0.00592999     0.05169256
Ti     -0.00020743     2.79573001     1.17551271     0.00010593     0.01333966    -0.11358675
Ti      3.80312603     0.90060827     8.61334897     0.00040546     0.00058698     0.05600559
Ti      5.70932560     2.85965086     3.61967746     0.02730898    -0.01926888    -0.04785210
Ti      3.80321918    -2.80551827     8.45866938     0.00015787     0.08330274     0.19137834
Ti      5.66710939    -0.95955986     3.66119556     0.08511100     0.01732359    -0.01454962
Ti      0.00018640     0.96369925     8.46138916     0.00007456    -0.02632091    -0.23580444
Ti      1.89729547     2.85973734     3.61966856    -0.02753832    -0.01953628    -0.04794518
Ti      0.00007737    -2.86061455     8.50162741    -0.00005759    -0.06859166    -0.04302794
Ti      1.93934514    -0.95953050     3.66118616    -0.08544139     0.01737038    -0.01459796
O       1.99622956     2.83321299     5.65167579    -0.00170618    -0.01604780    -0.04848897
O       3.80317574     4.75293833     0.77598940    -0.00005296    -0.02372178    -0.13058689
O       2.02713425    -0.92883433     5.69698394     0.02810911     0.03049998    -0.00758373
O       3.80316931     0.95047620     0.76585293    -0.00009693     0.04658738     0.00031779
O      -1.99623807     2.83318525     5.65169693     0.00169436    -0.01626815    -0.04829459
O       0.00008507     4.85147414     0.79507356    -0.00012110    -0.00826687     0.00378621
O      -2.02713410    -0.92882588     5.69703151    -0.02811528     0.03051078    -0.00738267
O       0.00011874     0.86831662     0.75626694     0.00000051    -0.02420617     0.14990385
O       5.71957197     4.75297605     4.08960938     0.02561797    -0.00737110    -0.02527061
O       3.80308927    -0.95556312     8.91271155    -0.00016172     0.03702313    -0.01991037
O       5.67018151     0.95379437     4.04244815    -0.01724774     0.01305915     0.04610272
O       0.00000554     2.83470775     8.88957829    -0.00009590     0.01536029     0.07373798
O       1.88661050     4.75299818     4.08962653    -0.02547861    -0.00724023    -0.02544853
O      -0.00003204    -0.93111999     8.85394438    -0.00004988     0.00260427    -0.02651734
O       1.93610519     0.95381028     4.04241871     0.01760872     0.01316302     0.04608113
O       2.02646048     1.07317813     8.01444414     0.04051392     0.07814100     0.10657175
O       3.80315353     2.87115309     3.16997580     0.00018409     0.04637732     0.03342178
O       1.91610673    -2.95857280     8.09649259     0.03246739    -0.00787503    -0.03530100
O       3.80316708    -0.96845207     3.22018533    -0.00002108    -0.04789298     0.07703491
O      -2.02659043     1.07320158     8.01441198    -0.04007349     0.07825233     0.10594954
O       0.00001016     2.83631212     3.23160836    -0.00007893    -0.01692661    -0.04497401
O      -1.91609179    -2.95856718     8.09650410    -0.03261086    -0.00792131    -0.03531694
O      -0.00000465    -0.93102080     3.31004895     0.00009513     0.01157974     0.06656743
O       3.80311477     4.71628740     6.47763873    -0.00006402    -0.00083227     0.10927552
O       5.68803272     6.65643031     1.66785277     0.00693093     0.01689113    -0.00016764
O       5.72037436     2.85477711     1.60093542     0.01471134    -0.01827078     0.02034720
O      -0.00000965     4.77188274     6.48455052    -0.00030210     0.03693211    -0.05748063
O       1.91828629     6.65642716     1.66785440    -0.00701089     0.01685744    -0.00005091
O       0.00005466     0.92855133     6.47374395    -0.00063378    -0.05945910    -0.03417897
O       1.88593300     2.85480771     1.60098416    -0.01483450    -0.01815251     0.02022405
