# total energy = -19074.37671627 eV

CRYSTAL
PRIMVEC
        7.60600008     0.00000000     0.00000000
        0.00000000     7.60600008     0.00000000
       -1.89786986    -1.89786986     4.85670466
PRIMCOORD
22 1
Ti      3.66858098     6.71723800     1.22247898     0.46975821    -0.21636330    -0.18118056
Ti      3.99546302     2.85374898     1.20312300    -0.21047830     0.02182610     0.50774036
Ti     -0.06029102     6.66528502     1.16949802    -1.84374827    -2.13908278    -1.63038931
Ti      0.18546398     2.61321897     1.09187798     0.47533339     1.80516294     0.44671623
Ti      5.87351721     2.79199225     3.52440679     1.32006450     0.81704007     0.88453386
Ti      5.68631822    -1.01850878     3.62740379     1.02292766    -0.47854932    -0.18653463
Ti      2.05291822     2.91409820     3.74196479    -0.52598131    -0.16973684    -2.14479911
Ti      1.14031622    -0.72350680     3.89259382     0.27615638    -0.86458672    -0.23418876
O       3.69218302     4.65476200     0.70169798    -0.09005472     1.69203436     1.16780243
O       3.90249701     0.98372701     0.77242701    -0.44954521     0.36287766     2.00050489
O       0.12734000     4.64903302     0.49412598    -0.16314196     0.07976285     1.41895199
O       7.07241399     0.74852498     0.70294398     0.58452869     2.13845903     0.38336525
O       6.01646820     4.80830124     3.99813981     0.27637955    -1.47683963     0.16598071
O      -1.34086175     0.75330123     3.93461981    -0.61271545     0.69687643     0.37403600
O       1.80464524     4.91940222     4.26428083    -0.36424318    -0.96559820    -1.59957643
O       2.04955921     0.91485920     3.95233180    -0.20774496     0.62343875     0.68460275
O       3.99173021     3.10820322     3.23677980    -0.43034652    -0.74218700    -0.49449274
O       0.24574325     2.92235321     3.06794681    -1.25663588    -0.27947825     0.47149293
O       5.53460802     6.42485402     1.79805698    -0.36110952     0.31571384    -0.93170540
O       5.90513100     2.91494700     1.47106598    -0.81529120    -0.18234296     0.37436819
O       1.49909501    -0.77404698     2.05905800     2.17904596    -0.48224554    -0.63526763
O       2.02659900     2.78562498     1.64729200     0.72684213    -0.55618124    -0.84196075
