# total energy = -19071.22927313 eV

CRYSTAL
PRIMVEC
        5.93400000     0.00000000     0.00000000
        0.00000000     9.29699974     0.00000000
        0.00000000     0.00000000     4.64899994
PRIMCOORD
22 1
Ti      4.30801199     7.03299902     2.34949000     0.36513021    -1.03263512     1.11938391
Ti      4.48235801     2.48057398     2.09858299     0.58376868     0.10632878    -1.97653603
Ti      1.35668998     7.16515098     2.50245302    -0.07940598    -1.21900931     0.64733382
Ti      1.72988302     2.30520501     2.29169299    -1.04166818     0.81564087    -0.83152541
Ti      3.07760699     4.51206401     4.35529001    -1.30501583    -0.02991634    -0.45163835
Ti      2.94047399     0.06126502     0.11225601    -0.19153440     0.10443645    -0.30152366
Ti      5.83023200     4.65579998     4.62457900     0.89878215     0.16633732    -1.26462636
Ti      5.90228202     9.10144102     0.14000300    -0.49531447     1.10210301    -0.42125510
O       4.28958000     5.24020502     0.91215399     0.91792968     1.12530954     1.56458036
O       4.41625800     0.76336999     0.90626901     0.34990104     1.31148164    -0.06287687
O       1.60438499     0.63265500     1.30582800    -0.31783938     1.21850512    -1.52398006
O       4.58704202     8.20152600     3.81927499    -1.59211071     2.10134462     0.95269460
O       4.52037003     3.93852001     3.27752502     0.54770945    -0.53263970     0.64268347
O       1.43993400     8.30592802     3.86679998     0.45377494     1.52253381     1.40562185
O       1.44059002     3.94584800     3.37029498    -0.18368765    -1.05801089     0.73065534
O       2.91572701     6.12700100     3.51869401    -0.47540949     0.98387001    -1.67478508
O       3.29783500     1.54561102     3.14388099    -0.87981743    -1.22376868     2.01233223
O       5.81331700     6.31224098     3.65356801     1.20383800    -2.19577922    -1.15735603
O       2.83178198     8.08738099     1.82480599     1.39716086    -1.66017607    -1.95027092
O       2.92497200     3.05832001     1.07488801     0.48856120    -0.12304739     0.29688179
O       5.83200998     8.16992602     1.61737602     0.23911757    -3.09963467     1.55862517
O       0.18949901     2.69827803     1.10302600    -0.88387103     1.61672672     0.68558106
