# total energy = -39036.13129759 eV

CRYSTAL
PRIMVEC
        5.93200024     0.00000000     0.00000000
        0.00000000     9.29399984     0.00000000
        0.00000000     0.00000000     9.29399984
PRIMCOORD
46 1
Ti      4.48527102     6.99132001     6.99811603     1.42442125     0.04427698    -0.30149384
Ti      4.43072100     6.94842798     2.35053502     1.26582706     0.90242258     0.21023147
Ti      4.49110298     2.30773199     6.93133698     0.36050865    -0.69072378     0.33852648
Ti      4.14620901     2.51634900     2.18411401     0.76818086    -0.84017100     0.23728720
Ti      1.60164798     6.93967300     6.89101701    -1.61687816     1.30641580     0.75997055
Ti      1.54270800     6.89016699     2.30269602    -1.30570823     0.81885398     0.21093544
Ti      1.57057601     2.34303901     6.92226799    -0.67061517    -0.67839431     0.75907478
Ti      1.22197499     2.04127701     2.46916603     0.52097357     0.76431366    -0.45360113
Ti      2.94913000     4.60247002     4.68357300     0.16028083     0.96935844     0.09906284
Ti      3.01252200     4.85264201     9.10503498    -0.56461035    -1.51478244     0.66570848
Ti      3.00566100     9.27900999     4.61777103     0.62875477     0.24221678    -0.12981350
Ti      2.98809798     9.23271799     9.22163099    -0.76271881    -0.58046686    -0.53647219
Ti      0.02176300     4.62645001     4.65726998    -0.55008593     0.87753532    -0.06371530
Ti      0.02275700     4.70602800     9.28709900     0.29432791    -0.06529139    -0.52866271
Ti      0.07738699     9.08108998     4.77501298    -1.38744826     0.75534951     0.61469726
Ti      5.91118299     0.18686900     0.03138402    -0.04535428    -1.11794178    -0.01662990
O       4.47310503     5.56340601     5.73328900     0.11544926    -0.62558228    -1.13047900
O       4.36697599     5.59783100     0.91521401     0.50960158    -0.39282640     0.44216820
O       4.46872698     0.81250700     5.50189000    -0.27101469     1.79329601     0.62149809
O       4.26692302     1.03730901     0.80910101     1.42017558     0.51981709     0.33294153
O       1.42862501     5.64704099     5.55832300    -0.09021516    -1.14995691    -0.40144345
O       1.53906202     5.64922300     0.87379298     0.14193446    -0.68560008    -0.02731618
O       1.47571803     0.93606799     5.61180303     0.23611298    -0.04783205    -1.09510266
O       1.53779502     0.92443699     0.88891300    -1.00149159     0.31588842     0.46370326
O       4.49242301     8.27292201     8.56518502    -0.03439906     0.62565942    -0.56204644
O       4.50167599     8.31825102     3.87453502    -0.27147543    -0.41958979    -0.98871243
O       4.47763499     3.79470900     8.39402502    -0.10118426    -0.21627434     0.27620754
O       4.30859102     3.91013198     3.60619998     0.47824516    -1.20408457     0.06954554
O       1.52264398     8.43353498     8.18555601    -0.03211669     0.63082425     1.83851813
O       1.41291098     8.38936900     3.80110897     1.01199532    -0.15857902    -0.75978981
O       1.53321499     3.74679501     8.44367502    -0.22530611     0.21174791     0.27966671
O       1.50461698     3.68296798     3.85671698    -0.27264245    -1.16157882    -0.69647662
O       3.02715100     6.08810499     7.83507499    -0.52025366     0.16429972    -0.05837975
O       2.88295602     6.06691001     3.37571301     0.64057131     0.55991680    -0.74215897
O       3.01430802     1.37087499     7.84254702    -0.04496501     0.51989808    -0.39148094
O       2.93498801     1.25615302     3.06714801     0.15458506     1.20576324     0.62057120
O       0.08525601     6.16449802     7.97833602    -0.27184489    -1.06881107     0.21642269
O       0.10796698     5.93512599     3.19379902    -0.76829707     0.43124049     0.02431339
O       0.05174999     1.45128798     7.82398603    -0.53911477    -0.38796367     0.89362966
O       2.99301700     7.87698302     6.04484703     0.46808596     0.15798741    -0.11557344
O       3.02629701     7.94390399     1.57005901    -0.21469876    -0.33451530    -0.41693410
O       3.00975699     3.24809599     6.12860700     0.12919310     0.46489342    -0.62330917
O       0.00665102     7.89541998     6.11598602     0.15367952    -0.48997377     0.40301954
O       0.00244898     8.01025801     1.54705498    -0.18228254    -0.67897409    -0.10293441
O       5.90806698     3.24442901     6.06409098     0.26415112     0.04246796    -0.31258635
O       5.84857502     3.10823201     1.52095802     0.59766549     0.18547045     0.07741183
