# total energy = -4985.33754824 eV

CRYSTAL
PRIMVEC
        3.63390792     0.00000000     0.00000000
       -0.00000734     3.28782182     0.00000000
       -1.81697960    -1.64394391     4.42790319
PRIMCOORD
6 1
Ti     -0.00015885     2.46598990     1.10697558     0.00081941    -0.00765083     4.48723488
Ti      1.81707954    -0.82211190     3.32092708    -0.00081941     0.00765083    -4.48723488
O       0.00003692     0.82194926     0.72126917     0.00166299     0.00410528     0.94439637
O       1.81688363     0.82192865     3.70663358    -0.00166299    -0.00410528    -0.94439637
O      -0.00001863    -0.82193777     2.93522067     0.00159588    -0.00004628     2.60433975
O       1.81693918     2.46581563     1.49268208    -0.00159588     0.00004628    -2.60433975
