# total energy = -19935.09100654 eV

CRYSTAL
PRIMVEC
        5.93804004     0.00000000     0.00000000
        2.43074717     5.83371465     0.00000000
        0.00000000     0.00000000    10.85561613
PRIMCOORD
24 1
Ti      3.59271248     3.45705401     4.02735615     0.50968000    -2.78020070     0.83337969
Ti      4.77607482     2.37666081     6.82826009    -0.50968000     2.78020070    -0.83337969
Ti      6.11146551     2.37666279     1.40040857    -1.52012957    -0.90720175     0.50123418
Ti      2.25732184     3.45705226     9.45520773     1.52012957     0.90720175    -0.50123418
Ti      2.37733901     0.54019666     1.40045209     0.50968000    -2.78020070    -0.83337969
Ti      5.99144832     5.29351833     9.45516422    -0.50968000     2.78020070     0.83337969
Ti      1.04194824     0.54019451     6.82821651     1.52012957     0.90720175     0.50123418
Ti      7.32683910     5.29352048     4.02739967    -1.52012957    -0.90720175    -0.50123418
O       2.73533455     2.05415016     5.53953783     1.68125835     2.10592916    -0.94724026
O       5.63345269     3.77956466     5.31607841    -1.68125835    -2.10592916     0.94724026
O       1.94554482     2.05417373     0.11176466     0.04314724    -0.82425818     1.39568427
O       6.42324257     3.77954119    10.74385123    -0.04314724     0.82425818    -1.39568427
O       4.41807920     0.86270720     0.11172941    -1.68125835    -2.10592916    -0.94724026
O       3.95070810     4.97100761    10.74388647     1.68125835     2.10592916     0.94724026
O       5.20786901     0.86268367     5.53957302    -0.04314724     0.82425818     1.39568427
O       3.16091819     4.97103122     5.31604317     0.04314724    -0.82425818    -1.39568427
O       1.69426097     3.54839612     2.93237276     0.58781071     2.28677728     2.15742092
O       6.67452627     2.28531871     7.92324349    -0.58781071    -2.28677728    -2.15742092
O       4.13698085     2.28526442     2.49546989     1.03612513     1.63975867     0.93062785
O       4.23180639     3.54845041     8.36014617    -1.03612513    -1.63975867    -0.93062785
O       0.47888747     0.63153859     2.49543518     0.58781071     2.28677728    -2.15742092
O       7.88989983     5.20217622     8.36018082    -0.58781071    -2.28677728     2.15742092
O       3.01643290     0.63159294     7.92327807    -1.03612513    -1.63975867     0.93062785
O       5.35235434     5.20212188     2.93233811     1.03612513     1.63975867    -0.93062785
