# total energy = -4986.73374443 eV

CRYSTAL
PRIMVEC
        4.59230135     0.00000000     0.00000000
       -0.00000788     3.39430989     0.00000000
       -2.29617878    -1.69719934     5.21365366
PRIMCOORD
6 1
Ti     -0.00019832     2.54585741     1.30341311    -0.00332264    -0.00413793     6.13537253
Ti      2.29631279    -0.84874686     3.91023977     0.00332264     0.00413793    -6.13537253
O       0.00004790     0.84856944     0.84926143     0.00124776     0.00312646    -1.76113099
O       2.29606641     0.84854105     4.36439145    -0.00124776    -0.00312646     1.76113099
O      -0.00002055    -0.84856617     3.45608810    -0.00247212    -0.00018563    -1.73663145
O       2.29613481     2.54567655     1.75756484     0.00247212     0.00018563     1.73663145
