# total energy = -4976.81426550 eV

CRYSTAL
PRIMVEC
        4.87278365     0.00000000     0.00000000
       -0.00000738     2.92367019     0.00000000
       -2.43641927    -1.46188843     5.30667156
PRIMCOORD
6 1
Ti     -0.00020887     2.19285656     1.32666754    -0.00856538    -0.01057804    16.52920798
Ti      2.43656571    -0.73107491     3.98000338     0.00856538     0.01057804   -16.52920798
O       0.00005161     0.73090816     0.86441332     0.00680468     0.01135631    -9.34806379
O       2.43630512     0.73087344     4.44225764    -0.00680468    -0.01135631     9.34806379
O      -0.00002007    -0.73091789     3.51774911    -0.00228237    -0.00002314    -1.88933755
O       2.43637675     2.19269943     1.78892181     0.00228237     0.00002314     1.88933755
