# total energy = -19946.25912365 eV

CRYSTAL
PRIMVEC
        4.73729404     0.00000000     0.00000000
        0.25196418     5.03561366     0.00000000
        0.00000000     0.00000000     8.48136589
PRIMCOORD
24 1
Ti      1.86635491     2.98409987     3.14652625     0.61802144     0.74426136    -0.77094968
Ti      3.12290311     2.05151360     5.33483973    -0.61802144    -0.74426136     0.77094968
Ti      4.18826052     2.05151532     1.09412285    -0.82801045    -0.99923287     1.43469178
Ti      0.80099755     2.98409834     7.38724323     0.82801045     0.99923287    -1.43469178
Ti      1.74037292     0.46629323     1.09415684     0.61820579     0.74248782     0.77343825
Ti      3.24888510     4.56932038     7.38720924    -0.61820579    -0.74248782    -0.77343825
Ti      0.67501556     0.46629136     5.33480569     0.82816241     0.99780925     1.43186999
Ti      4.31424252     4.56932225     3.14656029    -0.82816241    -0.99780925    -1.43186999
O       1.58810427     1.77312510     4.32797609    -2.05458987    -1.72015736    -0.33989456
O       3.40115375     3.26248837     4.15338989     2.05458987     1.72015736     0.33989456
O       0.95801310     1.77314542     0.08732041     1.99826443    -1.78190731    -0.21058320
O       4.03124497     3.26246810     8.39404533    -1.99826443     1.78190731     0.21058320
O       3.27517176     0.74468159     0.08729291     2.05425639     1.71992544    -0.33982463
O       1.71408626     4.29093188     8.39407283    -2.05425639    -1.71992544     0.33982463
O       3.90526298     0.74466132     4.32800364    -1.99886761     1.78234851    -0.21074286
O       1.08399499     4.29095225     4.15336234     1.99886761    -1.78234851     0.21074286
O       0.32537574     3.06294557     2.29102856    -0.91846498    -0.06038727    -1.00097531
O       4.66388233     1.97266790     6.19033748     0.91846498     0.06038727     1.00097531
O       2.63947612     1.97262098     1.94968140    -0.46081488    -0.93969510    -0.06366285
O       2.34978195     3.06299249     6.53168443     0.46081488     0.93969510     0.06366285
O       0.19939375     0.54513879     1.94965434    -0.91855960    -0.06015612     0.99975944
O       4.78986432     4.49047468     6.53171150     0.91855960     0.06015612    -0.99975944
O       2.22379996     0.54518570     6.19036449     0.46068401     0.93966862    -0.06280359
O       2.76545811     4.49042776     2.29100144    -0.46068401    -0.93966862     0.06280359
