# total energy = -19960.95122186 eV

CRYSTAL
PRIMVEC
        5.93400000     0.00000000     0.00000000
        0.00000000     9.29699974     0.00000000
        0.00000000     0.00000000     4.64899994
PRIMCOORD
24 1
Ti      4.44299399     6.82925398     2.27985900    -0.22801631     1.05042022     0.66820605
Ti      4.44876001     2.31931398     2.34027999     0.11706083    -0.41127690     0.66603398
Ti      1.49217798     7.02300403     2.35128999     0.32791142     0.35459100    -0.11815766
Ti      1.45465201     2.43743301     2.32110101    -0.10243716    -1.51559980    -0.00584386
Ti      2.93999402     4.66963098     0.03049701     0.26925296    -0.69374817    -0.14560445
Ti      3.00875500     9.26688998     4.58684400     0.21797101     0.19641821    -0.09584073
Ti      0.01769003     4.65984501     0.03152902    -0.49761355    -0.33586693    -0.41430283
Ti      5.92908998     9.22233903     0.11329299     0.14723196     0.69527360    -0.53042161
O       4.38496701     5.60395300     0.81494900     0.55335560    -0.28835318     0.29434308
O       4.46430899     0.93053999     0.75714803    -0.22441471     0.21701996     0.80157282
O       1.52791602     5.61953298     0.90461401    -0.32627157    -0.30801467    -0.28249621
O       1.46462499     0.91435002     0.96942002     0.11900535    -0.28437800    -0.85917969
O       4.48104099     8.41071802     3.62998501    -0.35560273    -0.04696996     0.86915018
O       4.49624198     3.70970398     3.70932101    -0.34292281     0.61976876     0.76646208
O       1.43222003     8.38270301     3.75424699     0.26746965    -0.16696622    -0.48552267
O       1.45164401     3.68344398     3.87334998     0.35770177     0.17992355    -0.63518587
O       2.92187499     6.19210298     3.27945303    -0.09977555    -1.02386662    -0.13035575
O       3.01302599     1.43488697     3.22122099    -0.41040761     0.15260583    -0.31359885
O       5.89318700     5.92209801     3.16625302     0.58421219     0.90557424    -0.15072892
O       5.92650601     1.40629098     3.09220699     0.47277745     0.33340021     0.33752992
O       3.01599499     7.83327499     1.35214498    -0.83751608     0.23914276     0.23496112
O       3.04170999     3.27593500     1.38524703    -0.71907946     0.18993003     0.12422521
O       5.84076299     7.83485898     1.41589798     0.77283199     0.10812881    -0.09912892
O       0.04252902     3.39513101     1.51788599    -0.06272414    -0.16715699    -0.49611639
