# total energy = -39035.63410484 eV

CRYSTAL
PRIMVEC
        5.93200024     0.00000000     0.00000000
        0.00000000     9.29399984     0.00000000
        0.00000000     0.00000000     9.29399984
PRIMCOORD
46 1
Ti      4.39314798     7.15778600     6.89416598    -1.17881344    -1.23937014    -1.04457867
Ti      4.48247400     6.87083699     2.43757499    -0.04514602     1.12853293     0.56976284
Ti      4.45357701     2.23698400     7.03463000    -0.17400256    -0.80582028     0.09985140
Ti      4.48583502     2.55355302     2.09474899    -0.33227561    -0.95573648     0.50748170
Ti      1.36280298     6.80927500     7.09595000     1.15452679     0.30369779    -0.42563549
Ti      1.50494099     7.01391900     2.27098100    -0.28965545    -0.10866592    -0.33781480
Ti      1.48173599     2.51149502     6.92481498    -0.11004017    -0.87835062     0.59752203
Ti      1.48117199     2.08919602     2.45327499     0.48174752     0.88788273    -0.51376625
Ti      2.96509798     4.62209499     4.72658802     0.42912293     0.71084035    -0.28793512
Ti      2.99666499     4.83737900     9.21022701    -0.65501294    -0.20980904    -0.55065285
Ti      2.85208498     9.27026698     4.60320399     1.45155668     0.05348359     0.84310309
Ti      2.99542698     0.02353198     0.02358400    -0.25859857     1.23980620     0.80410098
Ti      5.92856001     4.61630801     4.65585602    -0.26245291     0.23709102    -0.03313202
Ti      5.92276001     4.67363500     0.02032199     0.48079210    -0.55231662    -0.18892550
Ti      5.92472702     9.10479003     4.82132498    -1.51800327     0.65439793    -0.25481724
Ti      0.03695700     9.18667798     9.10892200    -0.21886729     0.94879373     1.65273041
O       4.40597302     5.55762602     5.62724701     0.22271110    -0.41477309    -0.62537222
O       4.41647200     5.62493001     0.88197602     0.41683768    -0.84689136     0.50596244
O       4.50553798     0.78854300     5.63057898    -0.14721217     0.62217069    -0.28450578
O       4.49271401     0.98769801     0.73149399    -0.34456060     0.61278744     1.03503807
O       1.44976998     5.57163699     5.68429301     0.35466556    -1.07474415    -1.17835681
O       1.45818199     5.74103001     0.70859501    -0.15506612    -0.48784721     1.11708277
O       1.53147299     0.82738101     5.69344402    -0.10072737    -0.04013288    -1.93692329
O       1.41334200     0.83261299     1.03489300     0.57429184    -0.00171184    -0.19831260
O       4.35634101     8.51971901     8.24353400     0.53998123    -0.84095211     0.05584772
O       4.47181600     8.04367698     4.00918300     0.40904904     2.06467965    -1.22270245
O       4.41310903     3.83314499     8.40327700     0.27092675    -1.12474929     0.31839473
O       4.51844102     3.90729601     3.60264099    -0.56082903    -0.68821027    -0.27495747
O       1.54311102     8.39814398     8.33301602    -0.04759577    -0.35854124     0.09927136
O       1.37966003     8.37961701     3.70112300     0.75154633     1.22646011    -0.11906577
O       1.50098799     3.80649298     8.33892502    -0.17268049     0.07943709     0.30315477
O       1.49347801     3.65416799     3.83874099    -0.05331236    -0.07805538    -0.24505116
O       2.94881498     5.98840498     7.82964198     0.75253261     1.54106607    -0.56080640
O       2.96902601     6.08085701     3.31357602    -0.92723656    -0.49569705    -0.57835290
O       2.88194899     1.47821500     7.93342798     0.46134710     0.11525668    -0.03139524
O       3.25168598     1.57058802     3.19654598    -0.99996178    -0.86492251    -0.06339649
O       5.82107199     6.04352599     7.81595899    -0.31110977     0.12408200     0.85060223
O       0.08250799     6.09903901     3.24561299     0.13601475    -0.69886081    -0.19438884
O       0.11773400     1.48228099     7.85264198    -0.66939081    -0.39099500     0.36089123
O       2.96367597     7.85575598     5.91712602    -0.46132216    -0.33042005     1.23414463
O       2.97419200     7.80028899     1.44035898     0.51397657     1.23342549    -0.42685805
O       3.04747601     3.10453402     6.03013902    -0.07174743     1.06243293    -0.62766051
O       0.07928800     7.89436898     6.13001800    -0.09061676    -0.82345677     0.89325942
O       5.84371099     7.97101999     1.39673001     0.27484872    -0.74385796    -0.01368290
O       5.81589002     3.22705098     6.00928102     0.57910521    -0.10145500     0.33285591
O       0.21804399     3.20999502     1.42905602    -0.09934284     0.31001885     0.03798806
