# total energy = -19907.91133009 eV

CRYSTAL
PRIMVEC
        6.59782227     0.00000000     0.00000000
        2.70083019     6.48190517     0.00000000
        0.00000000     0.00000000    12.06179569
PRIMCOORD
24 1
Ti      3.99190276     3.84117112     4.47484017    -0.22521329    -2.10889544     0.50689112
Ti      5.30674980     2.64073423     7.58695566     0.22521329     2.10889544    -0.50689112
Ti      6.79051723     2.64073643     1.55600952    -0.13548947    -1.13110069     0.17240230
Ti      2.50813538     3.84116918    10.50578637     0.13548947     1.13110069    -0.17240230
Ti      2.64148779     0.60021851     1.55605787    -0.22521329    -2.10889544    -0.50689112
Ti      6.65716480     5.88168703    10.50573802     0.22521329     2.10889544     0.50689112
Ti      1.15772026     0.60021613     7.58690724     0.13548947     1.13110069     0.17240230
Ti      8.14093233     5.88168942     4.47488852    -0.13548947    -1.13110069    -0.17240230
O       3.03926061     2.28238907     6.15504204     1.81440503     2.05377046    -0.78496554
O       6.25939188     4.19951629     5.90675379    -1.81440503    -2.05377046     0.78496554
O       2.16171646     2.28241526     0.12418295    -0.24440710    -0.73723814     1.56181899
O       7.13693619     4.19949021    11.93761248     0.24440710     0.73723814    -1.56181899
O       4.90897689     0.95856356     0.12414379    -1.81440503    -2.05377046    -0.78496554
O       4.38967567     5.52334179    11.93765164     1.81440503     2.05377046     0.78496554
O       5.78652112     0.95853742     6.15508113     0.24440710     0.73723814     1.56181899
O       3.51213132     5.52336802     5.90671463    -0.24440710    -0.73723814    -1.56181899
O       1.88251219     3.94266235     3.25819195     0.62141324     2.68625718     2.55913640
O       7.41614030     2.53924301     8.80360387    -0.62141324    -2.68625718    -2.55913640
O       4.59664539     2.53918269     2.77274432     0.60375387     2.09109132     1.57883945
O       4.70200710     3.94272267     9.28905130    -0.60375387    -2.09109132    -1.57883945
O       0.53209719     0.70170955     2.77270576     0.62141324     2.68625718    -2.55913640
O       8.76655537     5.78019580     9.28908980    -0.62141324    -2.68625718     2.55913640
O       3.35159211     0.70176993     8.80364230    -0.60375387    -2.09109132     1.57883945
O       5.94706038     5.78013543     3.25815346     0.60375387     2.09109132    -1.57883945
