# total energy = -19516.69420294 eV

CRYSTAL
PRIMVEC
        5.17600016     0.00000000     0.00000000
        0.00000000     5.50899976     0.00000000
        0.00000000     0.00000000     9.26300011
PRIMCOORD
23 1
Ti      1.91331703     3.23744101     3.36780700     0.08227070    -0.93924567     3.22246660
Ti      3.31156101     2.30173699     5.91941498     0.27011763    -0.28883784    -2.49267670
Ti      4.42496101     1.99917402     1.58350000    -0.27338216     1.16664801    -3.04216047
Ti      0.96746100     3.28597598     7.70521399    -1.61108572     0.47501534     1.84125276
Ti      1.85734198     0.19578802     1.35295298     1.30983125    -0.85022634    -1.59137692
Ti      3.25322600     5.30675600     7.88761202     0.40163063    -0.25298173     0.98423228
Ti      0.68245699     0.62456902     5.91888501    -0.70904084    -1.41287493    -2.51690447
Ti      4.50916200     4.87998603     3.43542400     0.27471399    -0.48967629     4.12218541
O       1.80554098     1.75831000     4.80309303    -0.31318259     1.25815720    -1.20203411
O       3.61934500     3.51081001     4.45403702    -0.14209130    -0.22571055    -0.51740051
O       5.06419400     2.63360701     9.17347501     0.29175475    -0.59487713     0.19198100
O       3.43764199     0.54863399     0.39013699     1.06752449     0.52744093    -1.19485405
O       1.64292301     4.68971902     8.94925102     0.43335214     0.27398894     1.28100172
O       4.12270899     0.70572502     4.91136999     0.80858422    -0.31995514    -0.67146981
O       0.95904000     4.79232702     4.47700501     0.07112008    -1.05152476    -0.40197850
O       0.35342701     3.30058302     2.38457598    -1.02517223     0.86598232     0.35359058
O       5.15289797     2.32299102     6.42363501    -0.39274952     0.26773447     1.03297322
O       2.66799199     1.89805100     2.19293698    -0.70344894    -0.02172069    -0.03240722
O       2.56062003     3.89850399     6.80520499     0.11356901    -0.83864814     0.15923542
O       0.18481701     0.59986501     2.23997301     0.72520228     0.08448545    -0.67055038
O       5.06405800     4.71863703     7.18209900    -0.82446259     1.69820810     0.04810947
O       2.23539499     1.17672002     7.07856499    -0.14730678     0.09073555     1.70535577
O       2.83802300     4.55227597     2.38725399     0.29225201     0.57788290    -0.60857186
