# total energy = -4986.49630241 eV

CRYSTAL
PRIMVEC
        3.13146204     0.00000000     0.00000000
        1.88712759     4.52910589     0.00000000
       -0.00001203    -0.00006519     5.01171853
PRIMCOORD
6 1
Ti      2.50928871     2.26452020     2.50585921     0.00000000     0.00000000     0.00000000
Ti      0.00000000     0.00000000     0.00000000     0.00000000     0.00000000     0.00000000
O       1.93350196     0.88264322     0.97671010    -1.30600545     0.88674038     0.65352993
O       3.08507545     3.64639718     4.03500827     1.30600545    -0.88674038    -0.65352993
O       0.57578159     1.38185067     3.48257041     1.30610418    -0.88651387     0.65314298
O       1.31133394     3.14718992     1.52914801    -1.30610418     0.88651387    -0.65314298
