# total energy = -19914.32765361 eV

CRYSTAL
PRIMVEC
        6.47171317     0.00000000     0.00000000
        0.34421336     6.87925363     0.00000000
        0.00000000     0.00000000    11.58656542
PRIMCOORD
24 1
Ti      2.54966518     4.07663916     4.29853313    -0.02596789    -1.14701814     0.68042831
Ti      4.26626108     2.80261421     7.28803242     0.02596789     1.14701814    -0.68042831
Ti      5.72166738     2.80261656     1.49470334     0.11660137     0.67335468    -0.59287064
Ti      1.09425895     4.07663707    10.09186234    -0.11660137    -0.67335468     0.59287064
Ti      2.37755864     0.63701261     1.49474978    -0.02596789    -1.14701814    -0.68042831
Ti      4.43836762     6.24224096    10.09181590     0.02596789     1.14701814     0.68042831
Ti      0.92215240     0.63701006     7.28798592    -0.11660137    -0.67335468    -0.59287064
Ti      5.89377393     6.24224351     4.29857963     0.11660137     0.67335468     0.59287064
O       2.16954135     2.42230204     5.91253565     1.51782483     1.48901535    -0.14379697
O       4.64638490     4.45695133     5.67402990    -1.51782483    -1.48901535     0.14379697
O       1.30876106     2.42232980     0.11929018    -1.30596508     1.11891263     0.16246961
O       5.50716526     4.45692363    11.46727504     1.30596508    -1.11891263    -0.16246961
O       4.47427836     1.01732458     0.11925261    -1.51782483    -1.48901535    -0.14379697
O       2.34164790     5.86192879    11.46731261     1.51782483     1.48901535     0.14379697
O       5.33505872     1.01729688     5.91257329     1.30596508    -1.11891263     0.16246961
O       1.48086748     5.86195662     5.67399227    -1.30596508     1.11891263    -0.16246961
O       0.44450237     4.18435187     3.12982043     0.48709387     0.06581075     0.59714304
O       6.37142395     2.69490150     8.45674519    -0.48709387    -0.06581075    -0.59714304
O       3.60584169     2.69483740     2.66349919     0.51809085     0.61889433    -0.07569999
O       3.21008463     4.18441596     8.92306617    -0.51809085    -0.61889433     0.07569999
O       0.27239583     0.74472512     2.66346221     0.48709387     0.06581075    -0.59714304
O       6.54353049     6.13452825     8.92310314    -0.48709387    -0.06581075     0.59714304
O       3.03797809     0.74478921     8.45678210    -0.51809085    -0.61889433    -0.07569999
O       3.77794824     6.13446415     3.12978339     0.51809085     0.61889433     0.07569999
