# total energy = -39032.69038132 eV

CRYSTAL
PRIMVEC
        5.93200024     0.00000000     0.00000000
        0.00000000     9.29399984     0.00000000
        0.00000000     0.00000000     9.29399984
PRIMCOORD
46 1
Ti      4.40262798     7.25063899     6.85164802     0.99086213    -0.50021628    -0.36385237
Ti      4.43123800     6.63086400     2.60839399    -0.23690230     0.56689272    -0.89227649
Ti      4.34966099     2.20690700     7.00075699     1.46458292    -0.78152798     0.85693512
Ti      4.36190700     2.54739499     2.07306997     0.83397516    -0.76879150     0.30861683
Ti      1.50611698     6.82327602     7.16874002     0.05688954     0.24255231    -0.69355611
Ti      1.36488402     7.08724302     2.09578898     1.49736270    -0.98370083    -0.39933464
Ti      1.51936901     2.49419399     6.84920999    -1.88856879    -0.49400809     1.03334500
Ti      1.48364500     2.00693298     2.73933800    -1.33860036     0.81793687    -0.65469001
Ti      2.85339898     4.70461198     4.61120902     0.04175293     0.14959506    -0.31973197
Ti      3.08721902     4.62051201     8.89616100    -2.12496253     1.46195911     1.82812984
Ti      3.05546902     9.15057000     4.62498800    -0.68654059    -0.50914572    -1.43175378
Ti      2.92911700     9.25929798     0.16494000     0.59896441     0.31159828     0.58621997
Ti      5.86104900     4.74200502     4.65746699    -0.11695798    -0.08635516     0.81556631
Ti      5.89265300     4.76813198     9.11843603     1.76729881     1.33190881     1.08540677
Ti      0.10169702     9.15837700     4.73033698    -0.51864261    -0.59316015     0.57843209
Ti      5.92798802     9.20124401     9.29007202    -0.43998405     1.36204549     0.09213192
O       4.57453201     5.96320403     5.33921102    -0.72177243    -0.85921749     0.63991645
O       4.36972300     5.33265599     0.88927602     0.70765810    -0.19527356     1.16601294
O       4.32181600     0.64673599     5.60789299     1.71335756     2.20134206     0.86767590
O       4.38039000     1.18243699     0.73244900     0.75664226    -0.36624581     1.16472765
O       1.54541300     5.55734698     5.73905698     0.30814477     0.07587045    -0.62133071
O       1.50361599     5.71590902     0.70984000    -0.42037887    -0.88454363    -0.20362656
O       1.58323298     0.87796401     5.32957301    -0.65611620     2.30529900     0.76822508
O       1.55151902     0.69683399     1.14449799    -1.62119813     1.01405812     0.12642119
O       4.39814998     8.49828500     8.37331001     0.63198202     0.02028627    -0.30118402
O       4.52995300     8.11093302     3.75570102     0.01453959     1.11617260     0.84437733
O       4.49837599     3.65987501     8.38747201     1.31411188    -1.13907034    -0.20147223
O       4.47263602     4.08515899     3.59647798    -1.74959470    -1.13446061    -0.01973862
O       1.42437799     8.19886202     8.57700202     0.40951852     0.77211465    -0.13342256
O       1.36969699     8.47337600     3.66296799     0.60413156    -0.53907466    -1.28021265
O       1.54220798     4.08715298     7.96025203    -1.15189681    -0.95860866     1.21300398
O       1.44605002     3.56301699     4.03344700     1.53023349    -0.03921268    -0.33814878
O       3.31057399     6.14847798     7.98448501    -1.42266364     0.91729384    -1.81820127
O       2.73568101     6.13923600     3.28747202     0.87555968    -0.65175561     0.02656670
O       2.85436198     1.63699501     8.17230801    -0.12080230     0.07733778    -2.78419465
O       3.21360200     1.36812899     3.06013700     1.00516878     0.42509890     1.04081946
O       5.75719199     6.11968899     7.87769302     0.41908200     0.04752557    -0.13330481
O       0.28837901     5.81559501     3.10999899    -1.14151521     1.98947691    -0.76835107
O       0.08684402     1.43418401     7.94718002     0.10421765     0.33520873    -1.21434019
O       2.82070202     7.98914002     6.09854598    -0.09535120    -1.23595469     0.67318088
O       3.10701803     7.94026802     1.53057497    -0.39080911    -0.89705925    -0.18188350
O       3.07491501     3.30034600     6.15302800     0.57077072    -0.29166091    -1.12236459
O       0.24219199     7.94668101     6.09182400    -0.77747412    -0.32567790     0.90718221
O       5.76257197     7.90176101     1.49272001    -0.31901129    -0.40678724    -0.31024588
O       5.79253198     3.42580001     6.03843102    -0.10369854    -2.13683306     0.91715475
O       0.22585603     3.12040002     1.88755101    -0.17336569    -0.76323277    -1.35283014
