# total energy = -19518.47592692 eV

CRYSTAL
PRIMVEC
        7.60600008     0.00000000     0.00000000
        0.00000000     7.60600008     0.00000000
       -1.89786986    -1.89786986     4.85670466
PRIMCOORD
23 1
Ti      3.81641500     6.47997397     1.23162100    -0.36115065     1.28931615     0.36166487
Ti      3.73550602     2.83682801     1.22945301     0.63716665    -0.63886487     0.26925451
Ti      0.04062398     6.76208900     1.29835702     0.42905506    -0.79428888    -0.66416736
Ti     -0.05639998     2.97029201     1.04453398    -0.38551264    -0.46986388     0.90089946
Ti      5.66105323     2.91020224     3.66969183    -0.44599915     1.30006851    -0.90982787
Ti      5.76432720    -0.95209280     3.61448081    -0.80231561    -1.24781288     0.27738897
Ti      2.04109523     2.85379623     3.62510282    -0.26374823    -0.64452926     0.47220513
Ti      1.90458221    -1.04425277     3.72331780     0.47235631     0.38722962    -0.15570504
O       3.57145298     4.68878799     0.72232102     0.14000613     0.71832407     1.15470086
O       3.71738498     0.86571303     0.78772098     0.30185457     0.68623283     0.07621293
O       0.01003500     4.86294498     0.70818500     0.34495193    -0.57038556     0.75763393
O      -0.06725001     0.96115099     0.86560698     0.26875417     0.45204895    -1.16333514
O       5.78148821     4.75152724     3.81767582     0.48447906     0.69057260     1.00047523
O       5.76852924     1.01416921     4.03022680     0.39978201    -0.99395337    -0.74686821
O       1.85430223     4.66425623     3.95410179    -0.24117934     0.50571201     1.06016599
O       1.78868123     0.97320522     4.15484984     0.02309906    -1.06300371    -0.87139552
O       3.81743224     3.06067723     3.39203379     0.01237678    -1.08698440    -1.23875359
O       3.83548221    -1.08895978     3.33325982     0.10671676     0.39782514    -1.12033291
O       0.06449221     6.30335022     3.19396381    -0.91391387     1.80063471    -0.32938878
O       5.70917000     6.61675899     1.45712798    -0.50061788     0.07237607     1.33204559
O       5.72005502     2.89642802     1.63694902     0.08287517     0.01961804    -0.40739736
O       1.91692099     6.78540000     1.60636998     0.27287308    -0.44310331     0.53461456
O       1.74662000     2.90365098     1.76477798    -0.06190910    -0.36716858    -0.59008999
