# total energy = -19960.10500962 eV

CRYSTAL
PRIMVEC
        7.60600008     0.00000000     0.00000000
        0.00000000     7.60600008     0.00000000
       -1.89786986    -1.89786986     4.85670466
PRIMCOORD
24 1
Ti      3.90032299     6.74571499     1.19821700    -0.82443585     1.16030021     0.38242757
Ti      3.91182799     2.96262498     1.20256297    -0.64224638    -0.92847146     0.10714588
Ti      0.05427602     6.53648000     1.16844797    -0.19235947     1.63286529     0.81416094
Ti      0.07562499     2.82134301     1.32988799    -0.15546284    -2.34699691    -1.18857181
Ti      5.71444923     2.60820121     3.66726983    -0.99366078     0.23182720    -0.83200235
Ti      5.68288222    -1.04188476     3.70029182    -0.50942700    -0.70666797    -0.64644988
Ti      1.92188821     2.90889724     3.60087381     0.66852615     1.15796564     0.28382521
Ti      1.85785020    -0.71606080     3.64169083     0.24652852    -1.69752367    -0.47930549
O       3.71662302     4.84582001     0.76327997     0.15380216     0.34577802    -0.39369749
O       3.67078299     0.99483201     0.84073602     1.04880839     1.31780990    -1.03951025
O      -0.02937098     4.56935797     0.75215302     0.27588256     0.58482154     0.86415941
O      -0.24909400     0.82126600     0.73662299     0.69571172     0.45913877     0.68315548
O       5.56285625     4.59568221     4.10308180     0.51682098    -0.31811191    -0.45364664
O       5.55575522     0.76885221     3.99732880     0.71162660     2.50134955     0.99424313
O       1.98653224     5.04197221     3.91066380    -0.23599625    -2.85093332     0.60646510
O       1.81108321     1.14418123     4.05531382     0.52729437    -1.01516446     0.58757982
O       3.74117822     2.72464222     3.12362879     0.65584521     0.60371222     1.00149262
O       3.75251621    -0.66960279     3.19090283    -0.21756503    -0.80520605    -0.48028868
O      -0.02944575     2.58791425     3.23237181     0.58123999     1.20521919    -0.35602953
O      -0.07235578    -0.85602876     3.21366682     0.17496518    -0.44814139     0.03202593
O       5.64208900     6.51524200     1.69834999     0.60887191    -0.32627465    -0.80313374
O       5.70961800     2.68955502     1.66604901     0.13791685     0.74917937    -0.12999245
O       1.83190797     6.95508503     1.61913501    -0.55724722    -1.28038182    -0.28204806
O       1.99668398     2.74761301     1.51877998    -2.67544003     0.77390697     0.72799527
