# total energy = -19071.94099659 eV

CRYSTAL
PRIMVEC
        7.60600008     0.00000000     0.00000000
        0.00000000     7.60600008     0.00000000
       -1.89786986    -1.89786986     4.85670466
PRIMCOORD
22 1
Ti      3.42582800     7.06963698     1.21511400     0.21739045    -2.48083856     0.69118606
Ti      4.00951803     3.01436602     1.17289301    -0.33235377     1.67803059     0.81437383
Ti     -0.25411499     6.42455202     1.00435699     0.14820590    -0.02467257    -0.54473829
Ti      0.29126900     2.63520698     1.31510400     0.25330183     0.26105757    -0.30733153
Ti      5.91971920     2.71979421     3.46135882    -0.67199688     1.40869020    -0.38669483
Ti      5.43328222    -1.26616479     3.72776480     1.86744331     1.49671041    -2.61369471
Ti      2.13519321     3.22926824     3.78839782    -1.14061943    -2.03728505    -1.14511038
Ti      1.48044924    -0.57780975     3.76216783     0.26604834    -0.50872020    -0.26630288
O       3.52200999     4.89342999     0.70582402     0.70187980    -0.10818152     1.26879334
O       3.96036598     1.22187001     0.84155201    -0.15453724    -1.79560846    -0.29227540
O       0.26253103     4.32583500     0.37394099    -0.30821419    -0.77554065     2.69309683
O       7.07658402     0.68916399     0.60230298    -0.36043717     0.95228426     4.02501953
O       5.87634424     4.62907722     3.89595579    -0.30137737    -1.34065879     0.86059097
O      -0.31043876    -0.40541978     3.95626782    -1.59565267    -0.04494033    -0.48526993
O       1.61858123     4.94751423     4.15546379     0.26247168     2.08464659    -0.50947919
O       2.07895421     1.16760521     4.07695780     0.23103710    -0.56032689    -0.39265439
O       3.94314221     3.04445425     3.12052480     0.88352008     0.46578199     1.34843818
O       0.10140322     2.95424720     3.27547679     1.80853623    -0.64663886    -0.86146386
O       5.17443401     6.56889401     1.92116102     0.67980353     0.49321902    -1.33736803
O       6.04581701     2.89720099     1.58142499    -2.67151293    -0.00940356    -1.34490137
O       1.40357000     6.59329802     1.83166498     0.90770260     0.88112535    -0.23416665
O       2.07645798     2.59036000     1.84060199    -0.69063867     0.61126972    -0.98004755
