# total energy = -4989.62414151 eV

CRYSTAL
PRIMVEC
        4.01232136     0.00000000     0.00000000
       -0.00000893     4.01232136     0.00000000
       -2.00619215    -2.00619661     5.12061441
PRIMCOORD
6 1
Ti     -0.00017669     3.00939299     1.28015346    -0.00010156     0.00010156     0.00000000
Ti      2.00629686    -1.00326835     3.84046061     0.00010156    -0.00010156     0.00000000
O       0.00004008     1.00307352     0.83410619    -0.00033527    -0.00133697    -0.68131816
O       2.00607998     1.00305100     4.28650794     0.00033527     0.00133697     0.68131816
O      -0.00002266    -1.00305611     3.39441334    -0.00133697    -0.00033527    -0.68131816
O       2.00614267     3.00918058     1.72620079     0.00133697     0.00033527     0.68131816
