# total energy = -19074.07025554 eV

CRYSTAL
PRIMVEC
        7.60600008     0.00000000     0.00000000
        0.00000000     7.60600008     0.00000000
       -1.89786986    -1.89786986     4.85670466
PRIMCOORD
22 1
Ti      4.07446501     6.66309100     1.17561298     0.80194151    -0.39193166     0.12868376
Ti      3.52673999     2.63782498     1.15695499    -0.22655438     1.96357175     1.43623470
Ti      0.12079402     6.84347398     1.09128203    -1.40611884    -1.70068793    -0.73880677
Ti     -0.18548298     2.95398298     1.09655999     0.00041292     0.92273199     0.20999416
Ti      5.53059522     2.86680622     3.53101283     0.89071711    -0.13119084     0.64716825
Ti     -1.17819875    -0.84179178     3.85495980    -2.06953570     0.09813879    -3.71403728
Ti      1.82407922     2.80019222     3.77798880    -0.67876249    -0.37895992    -1.20946075
Ti      1.52500120    -0.97925679     3.75251479     1.49504716    -1.02987889    -0.47171559
O       3.78476200     4.54747401     0.74004100    -0.18942430     1.68937558     0.92458678
O       4.02567502     0.92754802     0.81207001    -0.48235559    -2.76089402     1.24100099
O       7.26833901     4.74375199     0.63473700     0.75919562     0.97644466     0.82363006
O       7.35512101     1.03173397     0.47917101    -0.27909361    -1.28680290     3.51672484
O       5.73123325     4.74183721     4.02521681     0.98135830     1.40421468    -0.41723312
O       5.55716320     1.00209825     3.98088080     1.44478645    -0.83173624    -0.84674120
O       2.33712720     4.73150323     4.21390882    -1.17652079    -0.02218271    -0.63035631
O       2.01818122     0.73450623     4.11473481    -0.79433902     1.54778642    -1.33563048
O       3.64945625     2.67898523     3.13307784    -0.33138138     0.38394349    -0.34663806
O      -0.01105975     2.92668220     3.21252682     0.82267156    -0.16831913     0.73191647
O       5.91879002     6.62530102     1.89533601    -0.85387833     0.58815678     0.43930348
O       5.70244902     2.78108998     1.63968301    -1.85386197    -0.02502610     0.04255023
O       1.82370901     6.72853303     1.87749898     1.21011818    -0.34171285    -0.50769973
O       1.67553599     2.82759598     1.45097100     1.93557731    -0.50504121     0.07652557
