# total energy = -19073.88147444 eV

CRYSTAL
PRIMVEC
        5.17600016     0.00000000     0.00000000
        0.00000000     5.50899976     0.00000000
        0.00000000     0.00000000     9.26300011
PRIMCOORD
22 1
Ti      2.02881398     3.47969603     3.27288800     0.35133932    -0.68942023    -1.26326753
Ti      3.54108800     2.24546100     5.91756799     0.31002013     0.26513766    -0.87109753
Ti      4.52612398     2.27620800     1.26012502    -0.93305908     0.75122546    -1.36830253
Ti      0.59332697     3.11750002     8.02340399     0.22620548     2.22799850     1.50874318
Ti      1.91629502     0.41628099     1.29276700    -0.22575528     1.31749186    -1.60416328
Ti      2.94262398     5.10977500     7.95173402     2.11835582     0.19288140     1.43332652
Ti      0.59803702     0.06639402     6.17983199    -0.37694752     0.61173483    -1.67821519
Ti      4.63395702     5.05636498     3.40217002    -0.17663151    -0.45853996     0.44484883
O       3.55792800     3.49714401     4.31949498     0.65310415    -0.76200353     2.23479521
O       0.95889802     2.01086101     0.18654302     0.06086421    -0.96498397     0.03165235
O       4.28030501     3.56589201     9.01156598    -1.24188880     0.48724120    -0.00912588
O       3.37668601     0.85205898     0.21057000     0.60098710    -0.21910641    -1.71440580
O       1.61783699     4.56670198     9.17338002     0.05347125     0.92749573    -0.15192783
O       4.38603701     0.83483199     4.90756198     0.26422620    -0.41420693    -0.42837988
O       1.11418900     4.69401801     4.36087098    -1.17326551     0.95377318     1.50513309
O       0.31921797     3.63403999     2.38905801    -0.90164790    -0.94111949    -0.92083837
O       4.94027302     1.78628803     7.12006699    -0.50772801    -1.91182828    -1.55251211
O       2.75357498     1.97600400     2.19589101     0.11176307     0.40085981     1.27595335
O       1.86625697     4.16173501     6.73415500    -0.80157976    -3.15749789     0.13140759
O       0.20303600     0.85299600     2.16346599    -0.14412658    -1.14465658     1.31844522
O       2.25786502     0.90566099     6.50325698     0.71443296     1.99162790     0.96164282
O       2.91718299     4.67623998     2.23274900     1.01785950     0.53589523     0.71628827
