# total energy = -19960.85572265 eV

CRYSTAL
PRIMVEC
        7.60600008     0.00000000     0.00000000
        0.00000000     7.60600008     0.00000000
       -1.89786986    -1.89786986     4.85670466
PRIMCOORD
24 1
Ti      3.86296397     6.57920000     1.17804201     0.10114364     0.07128592    -0.28360230
Ti      3.74466402     2.74515498     1.23102303     2.40009175     0.09238183    -0.26942934
Ti     -0.03108498     6.75111000     1.18474700    -0.15686486    -0.38239080     0.12435119
Ti      0.08392402     2.91837300     1.21022001    -2.32187979     0.02664384     0.93329794
Ti      5.69068922     2.89331821     3.68318680    -1.39155277     1.23845406    -1.26755099
Ti      5.70003524    -0.81008279     3.66097284    -0.52953201    -1.55089643    -0.50011935
Ti      1.86274424     2.75061022     3.60158380     1.36750034    -0.08263374     1.86398595
Ti      1.93260321    -0.99231376     3.58594482     0.38825343    -0.05885643     0.48790763
O       3.99260102     4.59504800     0.76033500    -1.24569146     1.33094541    -0.08503104
O       3.95288500     0.94664402     0.69927397    -0.51101543    -1.77100917     0.47926512
O      -0.12355199     4.85185200     0.80419601     0.88310587    -1.24840243     0.50399837
O      -0.12825701     0.99228201     0.78099302     0.65535130     0.65943601     0.38360282
O       5.40342721     4.83906422     4.11498083     1.05410666    -0.31554852    -0.46318363
O       5.56460422     1.01278922     4.20132282     0.71539121     0.27754426    -1.05312245
O       2.15859423     4.65293724     4.08434083    -1.12686737     0.27979218    -0.50334454
O       1.94698323     0.82962425     4.09467783    -0.76548660     1.43682271    -1.18563638
O       3.72100323     2.73599524     3.15255680     0.42289700     0.11146559     0.98848206
O       3.84991425    -0.81710079     3.16463680    -0.44063685    -0.17838423    -0.10604827
O      -0.09830378     3.00623421     3.21385881     1.69783606    -0.20341496     0.52566661
O       0.00276924    -0.89487577     3.24521282    -0.52994004    -0.12944815     0.04132896
O       5.67843501     6.69139801     1.60941799     0.83858052    -0.01397575     0.76492173
O       5.65537802     2.83010799     1.72981698     0.87239414    -0.18451014    -0.05340595
O       1.91181601     6.62210701     1.62351898    -0.04445722    -0.07421106    -0.62199714
O       1.92459300     2.55219701     1.66208298    -2.33272754     0.66891027    -0.70433700
