# total energy = -4983.88425574 eV

CRYSTAL
PRIMVEC
        3.37474954     0.00000000     0.00000000
        0.00000000     3.17263571     0.00000000
        0.00000000    -0.00006248     4.51219296
PRIMCOORD
6 1
Ti      1.68737462     1.58628671     2.25609658     0.00000000     0.00000000     0.00000000
Ti      0.00000000     0.00000000     0.00000000     0.00000000     0.00000000     0.00000000
O       1.68737462     0.61828783     0.87936000     0.00000000    -2.75185531    -2.81914701
O       1.68737462     2.55428559     3.63283320     0.00000000     2.75185531     2.81914701
O       0.00000000     0.96797393     3.13545746     0.00000000     2.75034041    -2.81817925
O       0.00000000     2.20459950     1.37673570     0.00000000    -2.75034041     2.81817925
