# total energy = -19959.99197647 eV

CRYSTAL
PRIMVEC
        7.60600008     0.00000000     0.00000000
        0.00000000     7.60600008     0.00000000
       -1.89786986    -1.89786986     4.85670466
PRIMCOORD
24 1
Ti      3.73723098     6.55949000     1.33011099    -1.18995069     1.08847230    -0.51269642
Ti      3.72999099     2.96929102     1.23617102     1.70904247    -1.85316366     0.42362334
Ti     -0.06266898     6.63200898     1.16961899     1.18363915    -1.37140688     0.27236014
Ti      0.04430801     2.82890098     1.17773800     0.04875225     1.13151541    -1.15196237
Ti      5.79758520     2.88967122     3.55153782    -1.61439447    -0.19030953     0.65574751
Ti      5.77721420    -0.99830378     3.63506379     0.28151919     0.15673451    -0.26926968
Ti      1.80641920     2.90645821     3.65968784     2.30917828     0.35517644     0.09497196
Ti      1.85537323    -0.94375079     3.69152880    -0.00265287    -0.09373783     0.77308139
O       3.65473500     4.79055602     0.88130301     0.51437329     0.84938507    -1.45423114
O       3.59735298     1.13027599     0.82640399     0.99369060    -2.39564991     0.24241398
O       0.11876801     4.69580398     0.69584898    -0.37382003    -0.13110677     0.24512495
O       0.23412902     0.84512401     0.68059598    -0.96981044     1.52086953     0.78504139
O      -1.53275376     4.67993824     4.10259184    -0.92260574     0.61667855    -0.57695062
O       5.88606824     0.96717525     3.93955582    -0.83876127    -1.27192803     0.36926454
O       1.57200320     4.79180721     4.05769681     0.89156995    -0.87919625     1.51091859
O       1.85365123     0.98153024     4.02130682     0.49052116     0.93746673    -0.05983036
O       3.81400820     3.10053021     3.29498184     0.44876180    -0.60433185    -0.64339078
O       3.75785625    -1.27398079     3.32533883     1.00534799     1.05200556    -0.59009102
O       0.06453825     2.81128721     3.19276882    -0.34517973    -0.41841300    -1.26556918
O       0.00729021    -1.02263879     3.16103480    -2.00583376     0.78162105    -0.07062952
O       5.64402198     6.52531198     1.53480299     0.21501218     0.58498301     0.48952794
O       5.82595598     3.07041103     1.54529399    -0.33352723    -0.95067140     0.39389186
O       1.78478299     6.41546801     1.78234200     1.68073667     1.01434762    -1.03589682
O       2.00643301     2.91258502     1.55308998    -3.17560797     0.07065908     1.37455083
