# total energy = -19892.49737694 eV

CRYSTAL
PRIMVEC
        8.22944648     0.00000000     0.00000000
        0.00002559     2.91953989     0.00000000
        0.00000000     0.00000000    13.09235525
PRIMCOORD
24 1
Ti      2.98279351     1.73011654     4.85717053    -0.16474427     0.34726104     1.63349366
Ti      5.24667823     1.18942307     8.23518511     0.16474427    -0.34726104    -1.63349366
Ti      7.09737637     1.18942401     1.68895498    -0.16500806    -0.34696124    -1.63469308
Ti      1.13209541     1.73011571    11.40340077     0.16500806     0.34696124     1.63469308
Ti      2.98278105     0.27034665     1.68900749    -0.16539861     0.34617166    -1.63480904
Ti      5.24669074     2.64919308    11.40334827     0.16539861    -0.34617166     1.63480904
Ti      1.13208290     0.27034565     8.23513261     0.16433649     0.34656067    -1.63336871
Ti      7.09738888     2.64919407     4.85722303    -0.16433649    -0.34656067     1.63336871
O       2.60468065     1.02801954     6.68092883     3.96043570     0.02317053    -0.31576270
O       5.62479114     1.89152013     6.41142682    -3.96043570    -0.02317053     0.31576270
O       1.51010847     1.02803139     0.13479316    -3.96502358     0.02331914    -0.31504561
O       6.71936337     1.89150828    12.95756209     3.96502358    -0.02331914     0.31504561
O       5.62477862     0.43175013     0.13475064    -3.96396917    -0.02291728    -0.31393310
O       2.60469316     2.48778948    12.95760461     3.96396917     0.02291728     0.31393310
O       6.71935086     0.43173833     6.68097129     3.96107051    -0.02293862    -0.31619336
O       1.51012081     2.48780134     6.41138435    -3.96107051     0.02293862     0.31619336
O       0.29901018     1.77582966     3.53657184    -0.52033491     0.28294898     2.69953822
O       7.93046160     1.14370995     9.55578374     0.52033491    -0.28294898    -2.69953822
O       4.41374431     1.14368289     3.00964757    -0.51917663    -0.28274252    -2.69991772
O       3.81572748     1.77585678    10.08270785     0.51917663     0.28274252     2.69991772
O       0.29899767     0.31605971     3.00960578    -0.52059202     0.28346449    -2.69950480
O       7.93047411     2.60347996    10.08274963     0.52059202    -0.28346449     2.69950480
O       3.81571502     0.31608677     9.55582548     0.51920105     0.28350794    -2.70017508
O       4.41375676     2.60345284     3.53653005    -0.51920105    -0.28350794     2.70017508
