# total energy = -19923.77801297 eV

CRYSTAL
PRIMVEC
        6.22834422     0.00000000     0.00000000
        2.54958370     6.11891848     0.00000000
        0.00000000     0.00000000    11.38633514
PRIMCOORD
24 1
Ti      3.76835620     3.62606554     4.22424912     0.12221049    -2.47382562     0.69010183
Ti      5.00957181     2.49285311     7.16208614    -0.12221049     2.47382562    -0.69010183
Ti      6.41024826     2.49285519     1.46887299    -0.78033344    -1.06811687     0.32232775
Ti      2.36767980     3.62606370     9.91746234     0.78033344     1.06811687    -0.32232775
Ti      2.49356448     0.56660627     1.46891863     0.12221049    -2.47382562    -0.69010183
Ti      6.28436358     5.55231256     9.91741669    -0.12221049     2.47382562     0.69010183
Ti      1.09288793     0.56660402     7.16204043     0.78033344     1.06811687     0.32232775
Ti      7.68504012     5.55231481     4.22429477    -0.78033344    -1.06811687    -0.32232775
O       2.86906202     2.15457528     5.81035968     1.81480124     2.13944659    -0.87495290
O       5.90886594     3.96434338     5.57597558    -1.81480124    -2.13944659     0.87495290
O       2.04066034     2.15460000     0.11722871    -0.12849196    -0.79420840     1.53750098
O       6.73726776     3.96431876    11.26910618     0.12849196     0.79420840    -1.53750098
O       4.63407419     0.90488400     0.11719174    -1.81480124    -2.13944659    -0.87495290
O       4.14385383     5.21403465    11.26914315     1.81480124     2.13944659     0.87495290
O       5.46247594     0.90485932     5.81039659     0.12849196     0.79420840     1.53750098
O       3.31545197     5.21405941     5.57593861    -0.12849196    -0.79420840    -1.53750098
O       1.77709151     3.72187326     3.07573320     0.62181150     2.59322564     2.45764309
O       7.00083644     2.39704540     8.31060206    -0.62181150    -2.59322564    -2.45764309
O       4.33923325     2.39698846     2.61747064     0.81846754     1.95054783     1.33053687
O       4.43869470     3.72193020     8.76886443    -0.81846754    -1.95054783    -1.33053687
O       0.50229975     0.66241381     2.61743424     0.62181150     2.59322564    -2.45764309
O       8.27562827     5.45650483     8.76890077    -0.62181150    -2.59322564     2.45764309
O       3.16390295     0.66247082     8.31063834    -0.81846754    -1.95054783     1.33053687
O       5.61402500     5.45644784     3.07569686     0.81846754     1.95054783    -1.33053687
