# total energy = -19942.67625885 eV

CRYSTAL
PRIMVEC
        5.85176599     0.00000000     0.00000000
        1.23330746     6.10471469     0.00000000
        0.00000000     0.00000000    10.52665772
PRIMCOORD
24 1
Ti      2.85184048     3.61764827     3.90531507     0.08980095    -1.78329339     0.85161113
Ti      4.23323268     2.48706656     6.62134307    -0.08980095     1.78329339    -0.85161113
Ti      5.54922097     2.48706875     1.35797194    -0.32148494    -0.31669164    -0.09758163
Ti      1.53585221     3.61764632     9.16868631     0.32148494     0.31669164     0.09758163
Ti      2.23518689     0.56529115     1.35801415     0.08980095    -1.78329339    -0.85161113
Ti      4.84988629     5.53942386     9.16864410    -0.08980095     1.78329339     0.85161113
Ti      0.91919852     0.56528879     6.62130086     0.32148494     0.31669164    -0.09758163
Ti      6.16587466     5.53942622     3.90535728    -0.32148494    -0.31669164     0.09758163
O       2.28638930     2.14957385     5.37167302     1.57069470     1.78336538    -0.54251557
O       4.79868386     3.95514099     5.15498512    -1.57069470    -1.78336538     0.54251557
O       1.50806978     2.14959843     0.10837786    -0.70746475     0.21544130     0.75230686
O       5.57700345     3.95511646    10.41827998     0.70746475    -0.21544130    -0.75230686
O       4.18203026     0.90278369     0.10834368    -1.57069470    -1.78336538    -0.54251557
O       2.90304290     5.20193114    10.41831415     1.57069470     1.78336538     0.54251557
O       4.96034985     0.90275916     5.37170719     0.70746475    -0.21544130     0.75230686
O       2.12472326     5.20195574     5.15495094    -0.70746475     0.21544130    -0.75230686
O       0.96277564     3.71323346     2.84351297     0.35945167     1.04795607     1.17500486
O       6.12229752     2.39148138     7.68314516    -0.35945167    -1.04795607    -1.17500486
O       3.62163111     2.39142436     2.41984958     0.74645426     1.17830796     0.36810780
O       3.46344205     3.71329048     8.10680837    -0.74645426    -1.17830796    -0.36810780
O       0.34612203     0.66087616     2.41981595     0.35945167     1.04795607    -1.17500486
O       6.73895113     5.44383873     8.10684201    -0.35945167    -1.04795607     1.17500486
O       2.84678844     0.66093312     7.68317874    -0.74645426    -1.17830796     0.36810780
O       4.23828472     5.44378171     2.84347934     0.74645426     1.17830796    -0.36810780
