# total energy = -19960.30515433 eV

CRYSTAL
PRIMVEC
        5.93400000     0.00000000     0.00000000
        0.00000000     9.29699974     0.00000000
        0.00000000     0.00000000     4.64899994
PRIMCOORD
24 1
Ti      4.45389298     6.91363103     2.41434400     0.34067592    -0.47202592    -1.09507155
Ti      4.44008399     2.36309599     2.28658802    -0.05478611    -0.13378097     0.40851682
Ti      1.50703098     6.99327400     2.34012499    -0.04848125    -0.21631367    -0.98645037
Ti      1.46632402     2.42414998     2.32190298     0.22506700    -0.47634203    -0.29119451
Ti      2.95449702     4.64325800     4.60473898     1.30404370     1.96844862     0.76683797
Ti      3.00218299     0.01685699     4.64203899    -0.14570447    -1.00026389     0.38646189
Ti      0.03748702     4.64778702     0.00554101    -1.19418993     1.92468355     0.37112782
Ti      5.93222001     9.28726299     4.61773398     0.21808542    -0.99530706     0.43682930
O       4.35071098     5.56396302     0.94224100     0.69301129    -0.52633098    -0.39881913
O       4.51534898     0.92020997     0.86089100    -0.90242181     0.28517633     0.34136369
O       1.53892698     5.54352201     0.93755302    -0.76506083     0.19287703    -0.06873050
O       1.41575198     0.90105497     0.86502102     0.88472027     0.26312088     0.48074582
O       4.47105298     8.30255700     3.75920300    -0.61297693     1.06288133     0.79787506
O       4.43503998     3.76146698     3.82729102     0.35788715    -1.18448633    -1.67914079
O       1.53031203     8.25251599     3.78777000    -0.17138749     1.28696771     0.35664042
O       1.47722100     3.83111200     3.76326301    -0.22092649    -2.28791114    -1.69802195
O       2.88334099     6.09020799     3.19949403     0.13593710    -0.86017625     0.74565953
O       2.96816901     1.41896302     3.20963100    -0.33355088     0.51874777    -0.42863725
O       0.01774199     5.88952303     3.24360402     0.07781961     1.40079151    -0.61879123
O       5.83580698     1.35748602     3.25097101     0.78699363     1.35922370    -1.33561634
O       3.09678501     7.79290200     1.41051101    -1.75730261     1.42734948    -0.30511113
O       2.98286003     3.22935100     1.24879100    -0.70079119    -1.74859248     2.50748343
O       5.76842399     7.86768199     1.45959997     1.66249623     0.06259353    -0.08723653
O       5.93273400     3.35247700     1.43557898     0.22084216    -1.85133072     1.39327952
