# total energy = -4979.31400149 eV

CRYSTAL
PRIMVEC
        4.55999088     0.00000000     0.00000000
        0.00000000     2.71010513     0.00000000
        0.00000000    -0.00010819     6.17863804
PRIMCOORD
6 1
Ti      2.27999544     1.35499830     3.08931874     0.00000000     0.00000000     0.00000000
Ti      0.00000000     0.00000000     0.00000000     0.00000000     0.00000000     0.00000000
O       2.27999544     0.52813843     1.20412546     0.00000000    -0.01568682     2.60706255
O       2.27999544     2.18185818     4.97451202     0.00000000     0.01568682    -2.60706255
O       0.00000000     0.82681708     4.29344556     0.00000000     0.01639207     2.60315576
O       0.00000000     1.88317952     1.88519192     0.00000000    -0.01639207    -2.60315576
