# total energy = -19070.35065022 eV

CRYSTAL
PRIMVEC
        7.60600008     0.00000000     0.00000000
        0.00000000     7.60600008     0.00000000
       -1.89786986    -1.89786986     4.85670466
PRIMCOORD
22 1
Ti      4.11618899     6.54357102     1.33249800     0.41101336     1.29329391     0.01182605
Ti      3.46061199     2.68708302     1.20484902     1.71091115     0.19083995     0.21112776
Ti      0.02774101     7.01398002     1.03037499     0.24912122    -4.16859692    -1.07822722
Ti     -0.31051798     2.77290398     1.04687897    -2.43578562     0.96223032    -1.85236919
Ti      5.66197321     3.07768922     3.49984482    -1.31521231    -1.53650596     0.86279981
Ti     -0.98173477    -0.51358076     3.95262179    -3.17124275    -0.30501959    -0.82595897
Ti      1.70287223     2.66314923     3.81478080     0.64865769     0.57722239     1.71203498
Ti      2.03623421    -1.07301779     3.90987284    -0.54831649     2.15701391    -2.68645002
O       3.98026299     4.72689499     0.87754897    -1.55507653    -0.68368024    -0.00043966
O       3.94698399     0.81075702     1.09459600    -1.12496989    -0.80317359    -0.47771860
O       6.97750500     4.93335498     0.53160702     1.76433175    -0.65697212    -0.36041403
O       6.90753501     0.86566000     0.17247299     1.43172267     0.91142478     1.81210621
O       5.96260923     4.84767822     3.84647582     1.31740752    -0.35374330     0.08234887
O       5.34256325     0.93101524     3.97306681     0.68532343     1.42792026    -0.43766234
O       2.09896421     4.81404721     4.26170782    -0.40662474    -3.15981265    -0.20296862
O       2.08163725     0.89104522     4.12974980    -0.64123799    -0.65228474    -0.44723790
O       3.35037024     2.75739723     3.03919983    -0.10657252     0.94786530    -0.13100624
O      -0.11956776     2.41897124     3.21108983     0.74687926     1.14341088    -1.10740334
O       6.14195200     6.77962901     2.03495403    -1.12438805     0.65247398     0.93027843
O       5.33994800     2.57215900     1.50226600     2.97097508     1.88621751     1.66659483
O       1.76329400     6.63104000     1.89616501     0.30765240     0.30032219     0.87140169
O       1.64015599     2.36847100     0.57733201     0.18543137    -0.13044600     1.44733776
