# total energy = -19073.12153280 eV

CRYSTAL
PRIMVEC
        5.93400000     0.00000000     0.00000000
        0.00000000     9.29699974     0.00000000
        0.00000000     0.00000000     4.64899994
PRIMCOORD
22 1
Ti      4.40262999     7.05838402     2.44141798    -0.50572127    -1.19049654    -0.55072716
Ti      4.41254699     2.42024999     2.14145798     1.67742149    -1.60943327     1.33836074
Ti      1.43704401     7.10663599     2.49117800     0.29648790     0.05515970     0.16617252
Ti      1.65704299     2.36452498     2.19475301    -0.69270944    -0.25238524     0.20275958
Ti      3.02384099     4.52241799     4.45041999     0.53723066     1.95182746     0.74437526
Ti      3.00075299     0.03600802     0.10153398    -0.37687784     0.86313971    -0.08309629
Ti      5.91976900     4.51212899     4.56478303    -0.47528839     0.48233528     0.11773549
Ti      0.00413801     9.17556701     0.04021398    -0.60612083     0.12131266     1.77287090
O       4.20882502     5.54053402     0.94129499     0.32338910    -0.52352488     0.26245625
O       4.45516899     0.73502799     1.08595803     0.82651124     1.53987488     0.33941171
O       1.57087701     0.76412697     1.04570002    -1.87076235     1.20189244     0.37251056
O       4.38966801     8.32379299     4.11246099     1.07067306    -1.10106968    -2.62768126
O       4.49564898     3.97801002     3.47056698    -0.23417565    -1.56984855    -0.82294821
O       1.38345502     8.28344401     3.90162598     0.67116513     1.24938794     0.17400230
O       1.43226702     3.95444898     3.44229902     0.22598205    -0.56577609     0.16504329
O       2.84217201     6.30519202     3.39951900     0.54294031    -2.36705409     0.29941562
O       3.04030402     1.40796201     3.31218200    -0.06412051     0.86363439    -0.25558703
O       5.82130001     6.26184801     3.40736702     0.60381866    -1.61008736     0.24566437
O       2.90565201     8.03277000     1.65203798    -0.20302415    -0.83234533    -0.27072775
O       3.10587400     2.96786298     1.10609301    -1.42770018     1.82868572    -1.42207332
O       5.89329701     7.84336100     1.54693698     0.01582360     0.75060916    -0.82453406
O       0.06743200     2.98321098     1.11571700    -0.33494236     0.71416145     0.65659700
