# total energy = -19943.44850331 eV

CRYSTAL
PRIMVEC
        5.38472964     0.00000000     0.00000000
        2.45469763     5.17866751     0.00000000
        0.00000000     0.00000000     9.90379037
PRIMCOORD
24 1
Ti      3.40635699     3.06887354     3.67423556     2.41596626    -3.84876674     1.11081648
Ti      4.43307010     2.10979390     6.22955486    -2.41596626     3.84876674    -1.11081648
Ti      5.64402830     2.10979565     1.27762009    -5.23835441     0.28562704     1.32718903
Ti      2.19539890     3.06887199     8.62617049     5.23835441    -0.28562704    -1.32718903
Ti      2.17900831     0.47953987     1.27765978     2.41596626    -3.84876674    -1.11081648
Ti      5.66041882     4.69912773     8.62613080    -2.41596626     3.84876674     1.11081648
Ti      0.96805008     0.47953796     6.22951516     5.23835441    -0.28562704     1.32718903
Ti      6.87137711     4.69912962     3.67427531    -5.23835441     0.28562704    -1.32718903
O       2.56864164     1.82349684     5.05382842     0.67181845     1.52774569    -1.21402317
O       5.27078545     3.35517060     4.84996205    -0.67181845    -1.52774569     1.21402317
O       1.85244602     1.82351776     0.10196509     1.10579588    -0.82877279     0.29776085
O       5.98698115     3.35514977     9.80182512    -1.10579588     0.82877279    -0.29776085
O       4.04343674     0.76583682     0.10193292    -0.67181845    -1.52774569    -1.21402317
O       3.79599036     4.41283067     9.80185724     0.67181845     1.52774569     1.21402317
O       4.75963243     0.76581594     5.05386054    -1.10579588     0.82877279     0.29776085
O       3.07979463     4.41285156     4.84992988     1.10579588    -0.82877279    -0.29776085
O       1.68872589     3.14995917     2.67526086     0.49158611     0.41437019     0.45450513
O       6.15070115     2.02870828     7.22852961    -0.49158611    -0.41437019    -0.45450513
O       3.84960360     2.02866008     2.27666585     1.75361693    -0.00595725    -0.91782323
O       3.98982349     3.15000735     7.62712441    -1.75361693     0.00595725     0.91782323
O       0.46137717     0.56062534     2.27663421     0.49158611     0.41437019    -0.45450513
O       7.37804987     4.61804211     7.62715605    -0.49158611    -0.41437019     0.45450513
O       2.76247477     0.56067352     7.22856114    -1.75361693     0.00595725    -0.91782323
O       5.07695232     4.61799391     2.67522923     1.75361693    -0.00595725     0.91782323
