# total energy = -4989.22921721 eV

CRYSTAL
PRIMVEC
        2.95939557     0.00000000     0.00000000
        0.00000000     4.19531716     0.00000000
        0.00000000    -0.00005739     4.42719099
PRIMCOORD
6 1
Ti      1.47969778     2.09762974     2.21359549     0.00000000     0.00000000     0.00000000
Ti      0.00000000     0.00000000     0.00000000     0.00000000     0.00000000     0.00000000
O       1.47969778     0.81759428     0.86279431     0.00000000     0.30948072     0.18992283
O       1.47969778     3.37766514     3.56439663     0.00000000    -0.30948072    -0.18992283
O       0.00000000     1.28001221     3.07639070     0.00000000    -0.31000214     0.19048873
O       0.00000000     2.91524726     1.35080024     0.00000000     0.31000214    -0.19048873
