# total energy = -4987.82237756 eV

CRYSTAL
PRIMVEC
        3.63137893     0.00000000     0.00000000
        0.00000000     3.79321757     0.00000000
        0.00000000    -0.00006629     4.93908493
PRIMCOORD
6 1
Ti      1.81568930     1.89657558     2.46954241     0.00000000     0.00000000     0.00000000
Ti      0.00000000     0.00000000     0.00000000     0.00000000     0.00000000     0.00000000
O       1.81568930     0.73922930     0.96255488     0.00000000    -0.06105909     0.26274576
O       1.81568930     3.05392186     3.97652989     0.00000000     0.06105909    -0.26274576
O       0.00000000     1.15731975     3.43209838     0.00000000     0.06162011     0.26210864
O       0.00000000     2.63583141     1.50698645     0.00000000    -0.06162011    -0.26210864
