# total energy = -4987.13398379 eV

CRYSTAL
PRIMVEC
        3.61580307     0.00000000     0.00000000
        0.00000000     3.39925255     0.00000000
        0.00000000    -0.00006695     4.83449246
PRIMCOORD
6 1
Ti      1.80790138     1.69959291     2.41724633     0.00000000     0.00000000     0.00000000
Ti      0.00000000     0.00000000     0.00000000     0.00000000     0.00000000     0.00000000
O       1.80790138     0.66245125     0.94217143    -0.00000000    -1.03353423    -0.51339216
O       1.80790138     2.73673456     3.89232129    -0.00000000     1.03353423     0.51339216
O       0.00000000     1.03711492     3.35941870     0.00000000     1.03337457    -0.51293938
O       0.00000000     2.36207089     1.47507396     0.00000000    -1.03337457     0.51293938
