# total energy = -4941.94698120 eV

CRYSTAL
PRIMVEC
        4.98022269     0.00000000     0.00000000
       -0.00000688     2.39788484     0.00000000
       -2.49013925    -1.19900942     5.36530282
PRIMCOORD
6 1
Ti     -0.00021276     1.79849314     1.34132542    -0.02753087    -0.02441572    47.41614705
Ti      2.49028927    -0.59961787     4.02397673     0.02753087     0.02441572   -47.41614705
O       0.00005300     0.59945971     0.87396386     0.02574369     0.02372204   -38.49557303
O       2.49002336     0.59941546     4.49133835    -0.02574369    -0.02372204    38.49557303
O      -0.00002034    -0.59948698     3.55661517    -0.00124364     0.00082275    -0.91847527
O       2.49009665     1.79836215     1.80868704     0.00124364    -0.00082275     0.91847527
