# total energy = -4989.97654283 eV

CRYSTAL
PRIMVEC
        3.92824358     0.00000000     0.00000000
        0.58593200     3.88429933     0.00000000
       -2.25712319    -1.94218013     5.02755289
PRIMCOORD
6 1
Ti      0.43930615     2.91337297     1.25688795     0.00012033    -0.00012033    -0.00000000
Ti      1.81774665    -0.97125341     3.77066440    -0.00012033     0.00012033     0.00000000
O       0.14652431     0.97106902     0.81894715    -0.00045277    -0.00078522    -0.60561072
O       2.11052831     0.97105039     4.20860519     0.00045277     0.00078522     0.60561072
O      -0.14650028    -0.97104834     3.33272360    -0.00078522    -0.00045277    -0.60561072
O       2.40355285     2.91316776     1.69482875     0.00078522     0.00045277     0.60561072
