# total energy = -19073.86280089 eV

CRYSTAL
PRIMVEC
        5.93400000     0.00000000     0.00000000
        0.00000000     9.29699974     0.00000000
        0.00000000     0.00000000     4.64899994
PRIMCOORD
22 1
Ti      4.45064701     6.81207699     2.44449700    -1.05477644     1.18907755    -0.44557491
Ti      4.45317399     2.35429101     2.13188702     0.04911400     0.91949728     0.36679551
Ti      1.45088898     7.07896198     2.46933002     1.64248893     1.32340051     0.30221503
Ti      1.59206500     2.26130002     2.17545402    -0.40613186     2.00939037     0.44514708
Ti      3.05865101     4.57976700     4.52594898    -0.64149048    -0.18721392    -0.74035586
Ti      2.94506698     0.12444000     0.08215699     1.16109442    -1.31932737    -0.31450697
Ti      5.79849898     4.58236700     4.47714000     1.80846090    -0.95654226     0.30652035
Ti      0.00684898     9.14987598     0.14635699    -1.24673507    -1.01973743    -0.73245845
O       4.31974798     5.49120702     0.99553402     0.26084006     0.24110966     0.55992606
O       4.60832003     0.92419801     1.09689400    -0.52384781    -1.17837995    -1.43797328
O       1.35742998     0.82750997     1.09132600     0.74996613     0.12838808    -0.48441556
O       4.40956698     8.31350398     3.94883002    -0.18150195     1.58659647    -0.20531680
O       4.46084198     4.00405797     3.35758700    -0.79308637    -0.58857304     0.40132518
O       1.53011702     8.43149098     3.82552601    -0.24543734     1.08477325     0.23828119
O       1.47868602     3.93599498     3.54564601    -0.33599266     0.05418602     0.53115077
O       2.91684802     6.25100998     3.52643100    -0.39348974    -0.65450412    -1.08592074
O       2.98280102     1.50067000     3.16421801     0.26926068    -0.46662480     1.39040014
O       0.03922500     6.30235103     3.55647001     0.06756836    -0.88840749    -0.42341251
O       2.95932799     8.01055101     1.63339300    -0.15990982    -0.91620807    -0.57116744
O       2.99495802     2.99653402     1.03274698    -0.29823085     1.10786717     0.30530653
O       5.90111899     8.01126201     1.50851098     0.17585966    -2.29571341     1.50055653
O       0.02390500     3.13770602     1.17582201     0.09597726     0.82694576     0.09347763
