# total energy = -4960.74402137 eV

CRYSTAL
PRIMVEC
        4.37362044     0.00000000     0.00000000
       -0.00000662     2.62417227     0.00000000
       -2.18683485    -1.31213400     4.76306131
PRIMCOORD
6 1
Ti     -0.00018747     1.96822247     1.19076501    -0.01715132    -0.02322016    30.62636564
Ti      2.18696629    -0.65618431     3.57229571     0.01715132     0.02322016   -30.62636564
O       0.00004632     0.65603464     0.77586367     0.01637793     0.01905085   -19.31701503
O       2.18673240     0.65600348     3.98719711    -0.01637793    -0.01905085    19.31701503
O      -0.00001802    -0.65604337     3.15739432    -0.00158663    -0.00017612     0.34849208
O       2.18679669     1.96808144     1.60566640     0.00158663     0.00017612    -0.34849208
