# total energy = -19073.54991841 eV

CRYSTAL
PRIMVEC
        5.17600016     0.00000000     0.00000000
        0.00000000     5.50899976     0.00000000
        0.00000000     0.00000000     9.26300011
PRIMCOORD
22 1
Ti      1.96141998     3.37029397     3.25671100    -1.28217208    -0.12764118    -0.99231018
Ti      3.48613902     2.20886501     5.85721501     0.59610380     0.34553994    -0.90234107
Ti      4.35680499     2.35108600     1.27514201     0.42501662    -1.38000054    -0.65576653
Ti      0.88158898     3.08088699     8.03938599    -1.71681261     1.52808328     0.17607230
Ti      1.81521402     0.39255601     1.19374302    -0.84398061     1.52353577    -0.87603431
Ti      3.23569102     4.96403202     8.04913999     2.02615320     0.95490061     1.51472459
Ti      0.87672198     0.16891200     6.23829401     0.26891846    -0.30439276    -1.17666657
Ti      4.35966599     5.02409898     3.48738502     1.27142847     1.12581784     0.37812971
O       3.26674801     3.62176900     4.47460799     1.35697167    -1.40521279     1.65417614
O       1.05919901     2.03434902     0.26002902    -1.34169726    -0.22600802    -0.58026297
O       4.31331001     3.69185499     9.08302798    -0.22547632    -0.71692076    -0.57130139
O       3.38424901     0.91006099     0.10493601     0.49803778    -0.53957422    -0.56107482
O       1.56722198     4.79210498     8.80796398    -1.55840174     0.43096179     2.63466155
O       3.72232602     0.81862599     4.62176499     1.04090662     0.53008196    -0.17588538
O       1.13661399     4.99564301     4.57923502    -2.10824932    -0.08888461     0.05040598
O       0.10358698     3.45961301     2.57419199     0.35010365    -0.39672882     0.13198429
O       0.10978698     2.17406398     6.41856999     0.40399348    -1.31068357     0.64223224
O       2.60837399     1.88753498     2.17127898     0.66404549     1.91659434     1.55191562
O       2.17201099     3.94621102     6.88844700     0.32721825    -2.66464937    -2.15840051
O       5.14734997     0.67149201     2.08678302     0.81749155    -0.25761281     0.23787881
O       2.56595699     0.86508002     6.77442402    -0.31520888     1.18319306     0.87091910
O       2.81518201     4.76523500     2.37456501    -0.65439022    -0.12039941    -1.19305633
