# total energy = -19518.01629760 eV

CRYSTAL
PRIMVEC
        5.93400000     0.00000000     0.00000000
        0.00000000     9.29699974     0.00000000
        0.00000000     0.00000000     4.64899994
PRIMCOORD
23 1
Ti      4.52348598     7.09170901     2.18418100     0.10374174     0.10072609     0.31058269
Ti      4.47347503     2.33154200     2.33557899     0.08995599    -1.14793525     0.45890532
Ti      1.37858902     7.04847200     2.20746099    -0.08503490     0.14944414     0.64970541
Ti      1.44717902     2.39338599     2.41268498    -0.34785470    -1.64512302     0.19982647
Ti      2.98179903     4.52511997     0.23157902    -0.55296145    -0.27769416    -0.33121477
Ti      2.99985101     9.29220302     4.60030802    -0.57405144     0.89036641     0.37950602
Ti      5.91145202     4.61258101     0.02689099     0.12621087     0.26255858    -0.93630947
Ti      0.01402097     0.01213700     4.59741802     0.87665317     1.48733257    -0.14072964
O       4.42589199     5.45344700     1.00769599    -0.31414264     0.89277785    -0.20131360
O       4.53266398     0.85934099     0.91395499    -0.51914140     0.15776809     0.27345466
O       1.41446602     5.55517900     0.98269401     1.08662136     0.03071621    -0.29204323
O       1.45036202     0.86817402     0.92940199     0.54119325     0.16797923     0.03194057
O       4.49206502     8.43146002     3.55234301    -0.24835426    -0.57109956     0.41866008
O       4.44675099     3.59599802     3.79697102    -0.61243340     1.35432524     0.21546932
O       1.58906800     8.42001397     3.71597102    -0.72803410    -1.37823008    -1.13937322
O       1.50703902     3.74210799     3.83325099     0.28544012     0.20363479    -0.81124634
O       3.01227498     1.38008802     3.30455899    -0.27607205     0.84543714    -0.94515356
O       5.85350399     5.98940502     3.21087700     0.18005674     0.97276799    -0.29675298
O       0.02851398     1.45083601     3.30530302    -0.26883233     0.40044818    -0.86652919
O       2.92523299     7.87151498     1.34882100     0.43377869    -1.11127079     0.62854574
O       2.87293700     3.26558699     1.49441301     0.96142942    -0.35883357     0.13382288
O       0.02228699     7.87479900     1.20482399    -0.26432853    -1.17411166     1.17648351
O       0.00343701     3.19684502     1.33444702     0.10615960    -0.25198414     1.08376332
