# total energy = -19071.90153367 eV

CRYSTAL
PRIMVEC
        5.17600016     0.00000000     0.00000000
        0.00000000     5.50899976     0.00000000
        0.00000000     0.00000000     9.26300011
PRIMCOORD
22 1
Ti      1.44180401     3.11047398     3.63307498    -0.65602801    -0.47788289    -0.98495039
Ti      4.41259800     3.14393899     5.75903501     1.59866394     0.96372387     0.20029904
Ti      3.91715998     2.30078701     1.66177601     0.04320766    -0.87880313     0.62183490
Ti      1.64946999     2.54252899     8.41583802    -2.33951423     1.29929564     0.31651629
Ti      1.29800501     0.33776701     1.19431299     0.09278189     0.55952882     1.34792010
Ti      3.28459901     5.39786799     8.19893499    -0.60198495    -0.76170014    -0.45592489
Ti      1.79372498     0.25577602     5.55632900    -2.39690590     0.08780218     0.93633030
Ti      3.84046299     4.93488102     3.45027499     0.07599284     1.09333143    -1.55031947
O       3.20267602     3.34597098     4.20133203     0.07327055    -1.61970175     2.80422587
O       0.37398898     2.06310202     0.55041398     0.66133606    -0.09587467    -1.84804305
O       0.30946301     3.25504700     7.28794799    -0.27663666    -0.66489472     0.08727382
O       2.81046000     1.33060000     0.33406298     0.73101067    -0.33386378    -1.23128505
O       2.07181699     4.38162499     9.08268597     0.07273808    -0.39605853     1.34301778
O       3.31007403     0.54433400     4.78309600     0.69038876     1.90055965     0.91596124
O       0.39921301     4.58558101     4.78263302    -0.01670678    -0.65633295     0.90604501
O       4.85796998     3.69902899     2.53835198     1.83257348    -1.85739518    -1.62531472
O       0.78872202     1.87707902     4.90436998    -0.29239933    -0.36560381     0.85977182
O       2.17623297     1.75399202     2.53713101    -0.40654401     0.32614404    -0.29856124
O       3.03266799     4.24946900     6.64486502     0.29821414    -0.18260136     0.34546486
O       4.62840299     0.68455602     2.21450403     0.89187719    -0.28752940     0.20307146
O       1.86223798     0.88927898     7.38972201     0.02502893     0.74179902    -1.43182063
O       2.15965300     4.58786701     2.55486898    -0.10036356     1.60605741    -1.46151302
