# total energy = -19960.30729056 eV

CRYSTAL
PRIMVEC
        5.93400000     0.00000000     0.00000000
        0.00000000     9.29699974     0.00000000
        0.00000000     0.00000000     4.64899994
PRIMCOORD
24 1
Ti      4.42224199     6.97471999     2.34644501     1.49357238    -0.52662049    -0.57422088
Ti      4.44386100     2.38229899     2.27682200    -0.66907071     0.30581818     0.38299861
Ti      1.50667802     6.99445100     2.31097500    -1.78249583    -0.25090531    -0.25838131
Ti      1.50329202     2.29589799     2.42612402     0.41127047     0.08960298    -0.42546914
Ti      2.96271398     4.67012401     4.64161798    -0.53122533    -0.61371510     0.22810244
Ti      2.96889398     9.26505400     0.06459799    -1.58128739     0.78738161     0.20758606
Ti      5.93151800     4.62646700     0.02188100     0.58116980    -0.15701013     0.11925321
Ti      5.87451101     0.05221000     4.58545602     1.18143905    -0.30852118     0.82275460
O       4.46025099     5.59457301     0.85623297    -0.15116524    -0.39253741    -0.06715981
O       4.43013398     0.82184402     0.95084600     0.28337398     1.03852680     0.71692101
O       1.49282400     5.51793402     0.80182699     0.43090522     1.03390910     0.53859978
O       1.51818799     0.83205799     1.02870798    -0.46341838    -0.14846121    -0.54894693
O       4.34862502     8.44937400     3.70833103     0.91145975    -0.86032203    -0.85301598
O       4.49781998     3.72836001     3.80498297    -0.27631425    -0.49759915    -0.83041752
O       1.42257302     8.45909398     3.81478900     0.67668889    -0.98138196    -1.77939637
O       1.53028901     3.71456801     3.71865702    -0.05698955     0.48361466     0.83958505
O       2.91797602     5.96102498     3.15229300     0.57660918     0.99896188    -0.30397701
O       3.06229599     1.48830498     3.25511802     0.54865613    -0.34823960     0.27931421
O       0.05250200     5.98567199     3.04701001    -0.55974171     0.61604632     0.79451077
O       0.02542199     1.52590901     3.32330901    -1.27714146    -0.82096254    -0.06840422
O       2.96822902     7.75899999     1.34607399     0.24674526     0.56953993     0.10935343
O       2.81024997     3.17667601     1.38737601     2.70306321     0.50742514    -0.15995687
O       0.00630398     7.77602399     1.21669201    -0.31514409     0.16566704     1.59361944
O       0.21563698     3.36862998     1.52017997    -2.38095965    -0.69021753    -0.76325308
