# total energy = -19889.77411280 eV

CRYSTAL
PRIMVEC
        8.90876407     0.00000000     0.00000000
        0.00002982     4.56522394     0.00000000
        0.00000000     0.00000000    13.45972685
PRIMCOORD
24 1
Ti      3.22901631     2.70534756     4.99346266     0.36108612    -0.49738652     2.79719775
Ti      5.67977778     1.85987658     8.46626432    -0.36108612     0.49738652    -2.79719775
Ti      7.68324584     1.85987820     1.73634706     0.37736918     0.49626243    -2.79909163
Ti      1.22554831     2.70534614    11.72338013    -0.37736918    -0.49626243     2.79909163
Ti      3.22900146     0.42273566     1.73640103     0.36108612    -0.49738652    -2.79719775
Ti      5.67979269     4.14248861    11.72332615    -0.36108612     0.49738652     2.79719775
Ti      1.22553340     0.42273391     8.46621034    -0.37736918    -0.49626243    -2.79909163
Ti      7.68326069     4.14249037     4.99351664     0.37736918     0.49626243     2.79909163
O       2.81969068     1.60749302     6.86839560     0.79331932     1.32031313    -2.43530174
O       6.08910347     2.95773112     6.59133139    -0.79331932    -1.32031313     2.43530174
O       1.63476467     1.60751139     0.13857542    -0.79343784     1.32018946    -2.43589978
O       7.27402955     2.95771275    13.32115116     0.79343784    -1.32018946     2.43589978
O       6.08908856     0.67511915     0.13853177    -0.79331932    -1.32031313    -2.43530174
O       2.81970553     3.89010499    13.32119488     0.79331932     1.32031313     2.43530174
O       7.27401471     0.67510078     6.86843925     0.79343784    -1.32018946    -2.43589978
O       1.63477931     3.89012343     6.59128773    -0.79343784     1.32018946     2.43589978
O       0.32369427     2.77682803     3.63580800    -2.30869491     0.72946723     0.06543383
O       8.58509982     1.78839618     9.82391898     2.30869491    -0.72946723    -0.06543383
O       4.77808745     1.78835356     3.09409827    -2.30947884    -0.72914764    -0.06556136
O       4.13070664     2.77687065    10.36562851     2.30947884     0.72914764     0.06556136
O       0.32367943     0.49421599     3.09405529    -2.30869491     0.72946723    -0.06543383
O       8.58511473     4.07100814    10.36567149     2.30869491    -0.72946723     0.06543383
O       4.13069179     0.49425861     9.82396189     2.30947884     0.72914764    -0.06556136
O       4.77810236     4.07096553     3.63576502    -2.30947884    -0.72914764     0.06556136
