# total energy = -4989.00362930 eV

CRYSTAL
PRIMVEC
        3.11663656     0.00000000     0.00000000
        0.00000000     3.99542915     0.00000000
        0.00000000    -0.00005867     4.48420788
PRIMCOORD
6 1
Ti      1.55831828     1.99768519     2.24210404     0.00000000     0.00000000     0.00000000
Ti      0.00000000     0.00000000     0.00000000     0.00000000     0.00000000     0.00000000
O       1.55831828     0.77863885     0.87390612     0.00000000    -0.08491200    -0.26337696
O       1.55831828     3.21673153     3.61030195     0.00000000     0.08491200     0.26337696
O       0.00000000     1.21902260     3.11601097     0.00000000     0.08482664    -0.26343996
O       0.00000000     2.77634778     1.36819711     0.00000000    -0.08482664     0.26343996
