# total energy = -4981.24991939 eV

CRYSTAL
PRIMVEC
        4.10829367     0.00000000     0.00000000
        0.00000000     2.44165132     0.00000000
        0.00000000    -0.00009747     5.56660314
PRIMCOORD
6 1
Ti      2.05414684     1.22077677     2.78330132     0.00000000     0.00000000     0.00000000
Ti      0.00000000     0.00000000     0.00000000     0.00000000     0.00000000     0.00000000
O       2.05414684     0.47582283     1.08484888     0.00000000    -0.94465399     0.37535035
O       2.05414684     1.96573072     4.48175376     0.00000000     0.94465399    -0.37535035
O       0.00000000     0.74491539     3.86815142     0.00000000     0.94454343     0.37687990
O       0.00000000     1.69663816     1.69845121     0.00000000    -0.94454343    -0.37687990
