# total energy = -4990.33039098 eV

CRYSTAL
PRIMVEC
        3.83289786     0.00000000     0.00000000
        0.57171034     3.79002022     0.00000000
       -2.20233864    -1.89503983     4.90552491
PRIMCOORD
6 1
Ti      0.42864338     2.84266003     1.22638096    -0.00013833     0.00013833     0.00000000
Ti      1.77362659    -0.94767930     3.67914342     0.00013833    -0.00013833     0.00000000
O       0.14296790     0.94749939     0.79906979    -0.00023243    -0.00024503    -0.31166050
O       2.05930189     0.94748120     4.10645458     0.00023243     0.00024503     0.31166050
O      -0.14294445    -0.94747921     3.25183225    -0.00024503    -0.00023243    -0.31166050
O       2.34521419     2.84245980     1.65369213     0.00024503     0.00023243     0.31166050
