# total energy = -19961.29044103 eV

CRYSTAL
PRIMVEC
        7.60600008     0.00000000     0.00000000
        0.00000000     7.60600008     0.00000000
       -1.89786986    -1.89786986     4.85670466
PRIMCOORD
24 1
Ti      3.89073102     6.55952598     1.22266499    -1.43244772     0.96063289    -0.17164640
Ti      3.80396701     2.77823501     1.22860802     0.03544267    -0.89159797    -1.28155990
Ti     -0.01716302     6.68144101     1.13935900     1.43378752     0.94679803     1.53162832
Ti     -0.02410201     2.95180499     1.22842799    -0.23162151    -0.86672177     0.10911894
Ti      5.63981222     2.86707922     3.63438782     1.68376775    -0.12267586     0.06094828
Ti      5.70063421    -0.90649375     3.64320179     0.59105081    -0.09950636     0.24091323
Ti      1.93521020     2.80145325     3.62501180    -1.49955148    -0.24645756     0.35528339
Ti      1.94111524    -0.99112877     3.64636982    -0.68365864     0.51137590    -0.73439038
O       3.83059600     4.59447098     0.81507600     0.20285857     1.98542202    -0.27687655
O       3.82234697     0.87437301     0.78085998     0.10082533     0.93448476     0.25158794
O      -0.10625498     4.81902502     0.82467898     0.29678898    -1.81158659    -0.73072656
O      -0.07838099     0.91448798     0.85017501     0.41864568     1.56257798    -0.92368381
O       5.53238924     4.81144625     4.07210684     0.30759533    -0.56070433    -0.84228137
O       5.61106324     0.96272921     4.02005183     0.67289240     0.70966844     1.04507309
O       1.92704621     4.78579322     4.09415882     0.57195445    -2.04784355    -0.20623289
O       1.83853624     0.91603021     4.06621080     0.22159446     0.81405347    -0.12236399
O       3.87081522     2.86405322     3.14474381    -2.01314341    -0.03935872     0.80640701
O       3.82000023    -0.66276477     3.18147184     0.57684829    -1.24878604    -0.15229344
O       0.01264623     2.92729525     3.32539381    -0.40876545     0.05704072    -0.64299766
O       0.06177721    -0.98612175     3.24789083    -1.45327058     0.12730076    -0.19461433
O       5.74053301     6.60167199     1.55517097    -0.68920143    -0.10206255     1.15430053
O       5.70986100     2.71133399     1.61672799     0.28953255     0.51865778     0.45937892
O       1.93421498     6.71542700     1.61726701    -0.02131677    -0.81286511    -0.08619344
O       1.81489498     2.87665002     1.63257299     1.02939218    -0.27784637     0.35122105
