# total energy = -4988.42301606 eV

CRYSTAL
PRIMVEC
        4.12641581     0.00000000     0.00000000
       -0.00000919     4.12641581     0.00000000
       -2.06324027    -2.06324486     5.26622430
PRIMCOORD
6 1
Ti     -0.00018172     3.09496815     1.31655593    -0.00067671     0.00067671     0.00000000
Ti      2.06334796    -1.03179731     3.94966802     0.00067671    -0.00067671     0.00000000
O       0.00004122     1.03159694     0.85782485    -0.00031136    -0.00170927    -0.92299938
O       2.06312491     1.03157378     4.40839917     0.00031136     0.00170927     0.92299938
O      -0.00002331    -1.03157903     3.49093694    -0.00170927    -0.00031136    -0.92299938
O       2.06318938     3.09474969     1.77528707     0.00170927     0.00031136     0.92299938
