# total energy = -19072.45769801 eV

CRYSTAL
PRIMVEC
        5.17600016     0.00000000     0.00000000
        0.00000000     5.50899976     0.00000000
        0.00000000     0.00000000     9.26300011
PRIMCOORD
22 1
Ti      1.52012399     3.20857698     3.57000801    -1.43807381    -1.13998668    -0.73150303
Ti      4.47287499     2.98091398     5.72206801     0.55288946    -0.82671462     0.01696183
Ti      4.08609299     1.99602298     1.48805701     2.55796372     0.57806982     2.69747080
Ti      1.36126302     3.00121602     8.13295802    -1.63650957    -0.99632238     0.65986796
Ti      1.72767598     0.40344601     1.27334302    -1.08978125     0.36174869    -0.40701375
Ti      3.29801498     5.28663001     7.86299200    -0.81142426    -0.04147731     0.64989413
Ti      1.41242599     0.38740701     5.91526602    -1.18398547     0.00720115    -0.25604417
Ti      3.93262000     5.09649101     3.61434100     0.33137264    -1.08608966    -1.41354471
O       3.16313299     3.43609002     4.46377701    -0.08869538    -1.62426674     1.04966585
O       0.82598901     1.79181502     0.42017901    -0.69894411     1.22769682    -1.32364065
O       4.51911498     3.44684301     7.55698700     0.53098725     0.85877346    -0.15912666
O       3.44512699     0.81690098     0.27853202    -0.33696248    -0.32348552    -1.33989851
O       1.97929500     4.51633902     9.10890501     0.05894590    -0.61300496     1.66065944
O       2.88093101     0.21088798     4.98971500     2.15943898     1.15766688    -0.76832947
O       0.31572101     4.33600801     4.77418698     0.36707859     1.62008793     0.57018399
O       4.91946498     3.38405899     2.54883800    -0.19682265     0.26934604    -0.69567187
O       0.70867200     1.78457100     4.90483598    -1.16441140     1.26937776    -0.13309526
O       2.46482000     1.57652899     2.60055502     0.83480511     1.11733320    -0.34161052
O       1.91054101     4.32404199     6.91981002    -0.06311212    -0.71780162    -1.98019754
O       5.04765801     0.72328597     2.41164398    -0.19727388    -1.45012637     0.62581008
O       2.22263700     1.40389200     7.29513501     0.63090910     0.57018656     0.45507360
O       2.23808199     4.48895500     2.40215298     0.88160563    -0.21821243     1.16408847
