# total energy = -19517.56169163 eV

CRYSTAL
PRIMVEC
        7.60600008     0.00000000     0.00000000
        0.00000000     7.60600008     0.00000000
       -1.89786986    -1.89786986     4.85670466
PRIMCOORD
23 1
Ti      3.76923800     6.51276698     1.29664900     0.57420802     1.21167961    -0.39083045
Ti      3.77715402     2.88583802     1.04167399     1.00809727    -2.05405945     1.43145193
Ti     -0.06065700     6.51511499     1.24796400     0.09024678     3.39862632     0.67045088
Ti      0.03726800     2.94417399     1.07609898    -0.60911950    -2.53302761     0.54188385
Ti      5.65438825     2.97826121     3.67237682    -1.49420024    -0.72338143    -2.49551571
Ti      5.67278520    -0.91643578     3.68061579     0.95304042    -0.01813400     1.42978097
Ti      1.86845121     2.92777823     3.62741083     2.40604386    -0.74775447    -0.82058048
Ti      1.85934322    -0.98400176     3.64285582    -0.40110715     0.16447893     1.02652412
O       4.05578198     4.66983598     0.73586198    -0.93329460     1.26067817     0.62572652
O       3.61305499     0.94675700     0.76133498     0.28017013    -0.35013707     0.16783808
O      -0.16705898     4.80842602     0.72771201     0.22057194    -1.40816673     0.83729960
O       0.05253000     0.91517999     0.85331901     0.14182699     0.08074938    -0.52017113
O      -1.57659080     4.73480524     4.10110480    -0.52470321    -0.05509130    -0.22108976
O       5.59233322     0.94840925     4.05552279     1.15896143     0.57040922    -0.41257376
O       1.95628823     4.68081323     4.18451779    -0.74253075     0.93351725    -0.69945422
O       2.11782324     0.93363822     3.95708979    -1.39647617    -0.05693839     0.29626087
O       3.81797925     2.93900721     3.44740283     0.26296327     0.29633183    -1.89283245
O       3.89890321    -0.89250379     3.25456180    -2.43988833    -0.96803715    -0.16242333
O      -0.06504679    -1.03753476     3.26400380     1.40132682     0.67609111    -0.46178135
O       5.65243701     6.69780201     1.63164000     0.40602953    -0.26579843    -0.26410022
O       5.85146301     2.79155499     1.63623998    -0.49375689     0.36646050     1.16875503
O       1.84562298     6.31852702     1.75968697     1.04202556     0.14830334    -0.60970212
O       1.96829600     3.05874198     1.50668701    -0.91043542     0.07320113     0.75508263
