# total energy = -19074.27162205 eV

CRYSTAL
PRIMVEC
        7.60600008     0.00000000     0.00000000
        0.00000000     7.60600008     0.00000000
       -1.89786986    -1.89786986     4.85670466
PRIMCOORD
22 1
Ti      3.82679899     6.54175499     1.34968298     1.13621847     1.20329575    -0.77341769
Ti      3.69301801     2.82524897     1.15874699    -0.32713263    -1.14360577     0.97931093
Ti     -0.03022697     6.71808299     0.99199001    -0.39410681    -1.25554470     1.25431134
Ti     -0.16168302     2.82033202     1.01803500    -0.35018464     2.37733285     1.36624230
Ti      5.63741822     3.04765725     3.53563683    -0.65462676    -1.30836418    -0.54467864
Ti     -1.25464179    -0.73387777     3.88791082    -0.04416231    -0.15815170    -3.05302776
Ti      1.78037320     2.75942620     3.70117083     0.53990718    -0.85132240    -0.55922080
Ti      1.85124321    -1.11683377     3.76528484    -0.41037161     0.44904333     1.34409944
O       3.80452402     4.70662698     0.83041198    -0.81189812    -0.31390276     0.35341934
O       3.95875400     0.87590800     0.87480302    -0.28984365    -1.28654399     0.33782457
O      -0.10513799     4.79168799     0.61712402     0.31419047     1.45347215     0.80336848
O       7.27218401     1.06636302     0.54988798    -0.78645987    -2.32025151     2.48324023
O       5.48185424     4.90044725     3.95379582     1.01237662     0.20060320     0.09482258
O       5.57745820     1.00678925     3.95148279     0.46895216    -0.20705539    -0.43801870
O       2.11371624     4.52648022     4.26827480    -0.86478058     2.77640009    -1.10686289
O       2.15878621     0.84544622     4.14293679    -0.86365418    -0.05708828    -1.35708352
O       3.62078823     2.89758925     3.12590383     0.00034941    -0.31149749    -0.21856313
O      -0.14844676     2.66909120     3.14258879     1.80009761     0.84614908     0.32762397
O       5.87976198     6.66931301     2.08900398    -0.02074958     0.03858893    -1.11683338
O       5.59294003     3.04325799     1.58870700     0.21533074    -0.33040565     0.11618974
O       1.99945899     6.64945601     1.90847802    -0.41508290    -0.13218560    -0.98796218
O       1.71176601     2.62710702     1.25151102     0.74563151     0.33103403     0.69521653
