# total energy = -4988.29159849 eV

CRYSTAL
PRIMVEC
        3.97677181     0.00000000     0.00000000
        1.35050294     3.74043525     0.00000000
       -2.66367365    -1.87024310     5.15721218
PRIMCOORD
6 1
Ti      1.01276255     2.80546991     1.28930310    -0.00009127     0.00009127     0.00000000
Ti      1.65083785    -0.93527824     3.86790919     0.00009127    -0.00009127     0.00000000
O       0.33766716     0.93510366     0.84006778    -0.00059058    -0.00069497    -1.44321988
O       2.32593306     0.93508787     4.31714462     0.00059058     0.00069497     1.44321988
O      -0.33763491    -0.93508107     3.41867386    -0.00069497    -0.00059058    -1.44321988
O       3.00123507     2.80527256     1.73853853     0.00069497     0.00059058     1.44321988
