# total energy = -19518.86908615 eV

CRYSTAL
PRIMVEC
        7.60600008     0.00000000     0.00000000
        0.00000000     7.60600008     0.00000000
       -1.89786986    -1.89786986     4.85670466
PRIMCOORD
23 1
Ti      3.74572899     6.68471302     1.19523397     1.21984184    -1.60172639    -0.85176746
Ti      3.74674998     2.69118901     1.26322701     1.10247042     2.29088153     0.26383179
Ti     -0.03708199     6.66659098     1.15177201    -0.60201606    -1.01165234     0.12932731
Ti      0.05930500     2.82081902     1.24578099    -1.17360567     0.98416775    -0.73514063
Ti      5.66091925     2.86175723     3.61375282    -0.77497166     0.49370136     0.36479622
Ti      5.64345523    -0.83244577     3.60487280     1.11556685    -0.37324384    -0.04945416
Ti      1.94965721     2.81732423     3.70985982     0.50273390     0.02930262     0.93987688
Ti      1.89739022    -0.95930776     3.55766183    -0.66414807     0.01238398     0.31007027
O       3.77431398     4.68914000     0.83751100    -0.45463240     1.15726219    -0.16264907
O       3.97569302     0.94369301     0.80678999    -0.58839923    -1.02486910    -0.71059636
O       0.04350700     4.76132200     0.83211699     0.22301011    -0.03187835     0.30213662
O      -0.06686297     0.96826101     0.70470503     0.05909194    -0.13875992     0.46477052
O       5.68952022     4.70502521     4.06113980     0.42755610     1.08012984    -0.38755461
O       5.85129325     1.03320323     4.12829879     0.20866027    -1.07340409    -1.29674664
O       1.98878024     4.71937121     3.94722180    -0.79170389     1.15019525     0.73061034
O       1.90091221     0.95260520     4.13021081    -0.62474976    -1.16720902    -0.48686042
O       3.79329123     2.87086024     3.49858183     0.41752494    -0.69569655    -1.91798993
O       3.81364524    -0.75804175     3.13887884    -0.48349870    -0.23232805     0.54709959
O       0.00750723    -0.96763378     3.17304284     0.23839689     0.23137057     0.36111286
O       5.67237900     6.65301298     1.62515900     0.56531869    -0.06340343    -0.14434641
O       5.69139202     2.86220401     1.61174701     1.10162247    -0.11811395     1.21916641
O       1.91677901     6.66736802     1.57916101    -0.39657764     0.34353473     0.23238230
O       1.90393000     2.75072002     1.63302999    -0.62749107    -0.24064480     0.87792510
