# total energy = -19944.46749118 eV

CRYSTAL
PRIMVEC
        4.91964028     0.00000000     0.00000000
        1.53625486     5.00554281     0.00000000
        0.00000000     0.00000000     8.90808345
PRIMCOORD
24 1
Ti      2.69351617     2.96628006     3.30483543     2.84112455    -2.19922424     0.98590736
Ti      3.76237890     2.03926286     5.60324808    -2.84112455     2.19922424    -0.98590736
Ti      4.86874410     2.03926458     1.14917073    -5.32219246     0.37451808     2.05041414
Ti      1.58715104     2.96627852     7.75891287     5.32219246    -0.37451808    -2.05041414
Ti      1.92538885     0.46350874     1.14920645     2.84161718    -2.19956183    -0.97276413
Ti      4.53050624     4.54203433     7.75887715    -2.84161718     2.19956183     0.97276413
Ti      0.81902362     0.46350687     5.60321236     5.32261618    -0.37499939     2.03200477
Ti      5.63687146     4.54203620     3.30487114    -5.32261618     0.37499939    -2.03200477
O       2.09803864     1.76253675     4.54572680    -1.11974978    -0.13006239    -0.96140705
O       4.35785643     3.24300622     4.36235670     1.11974978     0.13006239     0.96140705
O       1.44369934     1.76255694     0.09171373     1.38539266    -0.87427619    -0.47636980
O       5.01219579     3.24298607     8.81636953    -1.38539266     0.87427619     0.47636980
O       3.58972909     0.74023475     0.09168483     1.11948958     0.12956076    -0.96141476
O       2.86616598     4.26530822     8.81639843    -1.11948958    -0.12956076     0.96141476
O       4.24406845     0.74021460     4.54575570    -1.38530164     0.87446671    -0.47657549
O       2.21182658     4.26532843     4.36232780     1.38530164    -0.87446671     0.47657549
O       1.11317921     3.04465492     2.40629558    -0.39197331    -1.65136901    -1.91902300
O       5.34271586     1.96088804     6.50178792     0.39197331     1.65136901     1.91902300
O       3.24037504     1.96084137     2.04777450     1.58460335    -2.10128652    -2.47325741
O       3.21552002     3.04470160     6.86030885    -1.58460335     2.10128652     2.47325741
O       0.34505182     0.54188346     2.04774605    -0.39213683    -1.65128313     1.91956705
O       6.11084320     4.46365951     6.86033731     0.39213683     1.65128313    -1.91956705
O       2.44739268     0.54193013     6.50181633    -1.58483809     2.10155648    -2.47368215
O       4.00850238     4.46361284     2.40626713     1.58483809    -2.10155648     2.47368215
