# total energy = -19517.75778416 eV

CRYSTAL
PRIMVEC
        7.60600008     0.00000000     0.00000000
        0.00000000     7.60600008     0.00000000
       -1.89786986    -1.89786986     4.85670466
PRIMCOORD
23 1
Ti      3.81409303     6.48641501     1.25284503    -1.06149782     1.76763511     0.51194925
Ti      3.79525601     2.87641798     1.04091599     0.83089498    -2.06534402     1.75494619
Ti     -0.07006503     6.57178898     1.26085899     1.07464644     1.85117079     0.11837106
Ti      0.03152700     2.94380098     1.09065500    -0.41418019    -1.57062245     0.53864837
Ti      5.69792821     2.95080522     3.65579283    -2.16417727    -0.20035380    -1.67571068
Ti      5.64074722    -0.90856278     3.65719081     0.33389412     0.07402877     1.40917537
Ti      1.83254722     2.90975424     3.63704783     2.93127569    -0.41187880    -1.30409280
Ti      1.84717924    -1.04656480     3.67496481     0.13440370     0.54629766     0.08391107
O       4.04374701     4.71351898     0.67280903    -0.66667084    -0.13457853     1.04575443
O       3.69289101     0.92507502     0.79036501     0.09207252     0.24014010     0.30359932
O      -0.16559798     4.80615199     0.77478201     0.20513348    -0.92405045     0.75387189
O      -0.01348301     0.92776297     0.81921898     0.24372473     0.09931867    -0.49894538
O      -1.54090880     4.68746224     4.16310283    -0.47824773     0.91191407    -0.73142281
O       5.56513123     0.98412125     4.05017482     1.16386144    -0.35760613    -0.56971013
O       1.91997624     4.71566522     4.20085079    -0.75686466    -0.15971339    -1.50766563
O       2.09012822     0.87047123     4.02709983    -1.11201333     1.12245921    -0.39932049
O       3.80347424     3.02207820     3.40953882     0.42752345    -0.15375151    -1.56167424
O       3.82153220    -0.94283278     3.27464683    -0.10728498    -0.92982875    -0.02810294
O       0.00286523    -1.03333077     3.28604679    -0.43334854     0.62559308    -0.74724307
O       5.62121598     6.76412099     1.60111901     1.44663044    -0.44123772     0.62539716
O       5.83781600     2.85399002     1.67268600    -0.30089040     0.09910655     0.86933632
O       1.90529602     6.38945799     1.67367101    -0.01393847     0.15835327     0.27464971
O       1.99610300     3.06802602     1.50657202    -1.37494678    -0.14705199     0.73427802
