# total energy = -4922.74587670 eV

CRYSTAL
PRIMVEC
        5.19129721     0.00000000     0.00000000
       -0.00000678     2.22484181     0.00000000
       -2.59567838    -1.11250139     5.63371575
PRIMCOORD
6 1
Ti     -0.00022182     1.66870044     1.40842889    -0.03850717    -0.03090313    68.53598095
Ti      2.59583361    -0.55635997     4.22528676     0.03850717     0.03090313   -68.53598095
O       0.00005516     0.55619682     0.91768625     0.03746741     0.03126077   -60.81494938
O       2.59555648     0.55614360     4.71602945    -0.03746741    -0.03126077    60.81494938
O      -0.00002170    -0.55623709     3.73454413    -0.00103436    -0.00002443    -0.57983951
O       2.59563328     1.66857745     1.89917157     0.00103436     0.00002443     0.57983951
