# total energy = -19945.23322041 eV

CRYSTAL
PRIMVEC
        5.67476595     0.00000000     0.00000000
        2.05109717     5.68072036     0.00000000
        0.00000000     0.00000000    10.32060430
PRIMCOORD
24 1
Ti      3.27230809     3.36638954     3.82887060     0.75717036    -2.70559369     0.98965705
Ti      4.45355524     2.31433067     6.49173381    -0.75717036     2.70559369    -0.98965705
Ti      5.72973886     2.31433261     1.33139040    -1.88372971    -0.66284581     0.56077349
Ti      1.99612450     3.36638778     8.98921413     1.88372971     0.66284581    -0.56077349
Ti      2.24675964     0.52602951     1.33143178     0.75717036    -2.70559369    -0.98965705
Ti      5.47910370     5.15469082     8.98917275    -0.75717036     2.70559369     0.98965705
Ti      0.97057594     0.52602741     6.49169243     1.88372971     0.66284581     0.56077349
Ti      6.75528742     5.15469297     3.82891198    -1.88372971    -0.66284581    -0.56077349
O       2.51832549     2.00027815     5.26652538     1.42391551     1.91785804    -0.90628695
O       5.20753784     3.68044207     5.05407903    -1.42391551    -1.91785804     0.90628695
O       1.76355140     2.00030106     0.10625643     0.01003913    -0.60696646     1.07780813
O       5.96231199     3.68041920    10.21434769    -0.01003913     0.60696646    -1.07780813
O       4.18198938     0.84008192     0.10622294    -1.42391551    -1.91785804    -0.90628695
O       3.54387395     4.84063829    10.21438118     1.42391551     1.91785804     0.90628695
O       4.93676352     0.84005900     5.26655887    -0.01003913     0.60696646     1.07780813
O       2.78909975     4.84066123     5.05404554     0.01003913    -0.60696646    -1.07780813
O       1.45377090     3.45533606     2.78785270     0.43834780     1.58870297     1.48841397
O       6.27209242     2.22538415     7.53275171    -0.43834780    -1.58870297    -1.48841397
O       3.84705620     2.22533124     2.37248231     1.17418674     1.13701474     0.31993740
O       3.87880713     3.45538897     7.94812193    -1.17418674    -1.13701474    -0.31993740
O       0.42822244     0.61497591     2.37244933     0.43834780     1.58870297    -1.48841397
O       7.29764089     5.06574430     7.94815491    -0.43834780    -1.58870297     1.48841397
O       2.85325867     0.61502883     7.53278457    -1.17418674    -1.13701474     0.31993740
O       4.87260466     5.06569138     2.78781978     1.17418674     1.13701474    -0.31993740
