# total energy = -19517.14523999 eV

CRYSTAL
PRIMVEC
        5.17600016     0.00000000     0.00000000
        0.00000000     5.50899976     0.00000000
        0.00000000     0.00000000     9.26300011
PRIMCOORD
23 1
Ti      1.88394203     3.20405299     3.44499401    -0.58559647    -1.13132463     2.98914276
Ti      3.43714298     2.28111199     5.92645102    -0.09395869     0.14876563    -3.66341893
Ti      4.32071701     2.13372602     1.46093800    -0.18072394     0.10713302    -0.64540807
Ti      0.74860398     3.49272400     7.76863102     0.03401468     0.69033606     1.23259400
Ti      2.04318702     0.13620297     1.48145298    -1.49134066     0.46180244    -1.50250208
Ti      3.23201398     5.13231002     8.01514898    -0.54610560     0.25607297     0.01038752
Ti      0.78121501     0.53458200     5.97699698     0.81528092     1.04086445    -4.34623322
Ti      4.50094298     4.97493402     3.25600100     1.31762787    -0.66628106     3.60762803
O       1.75879102     1.85044701     4.78133601     0.54433822     0.36908405    -0.16187723
O       3.57888400     3.56256502     4.46961399     0.10351342    -0.33096075     0.49634599
O       4.78349003     2.90250203     9.12069000    -0.07941344     0.48850721     0.33592992
O       3.39530601     0.65163199     0.30549900     1.70469062     0.00027896    -0.91992820
O       1.56744598     4.83511402     8.98366702    -0.11287019    -0.91081235     0.64265981
O       4.45093499     0.79513300     4.82418598    -1.03594901     0.03328757    -0.98481284
O       1.01440998     4.63388199     4.36204099     0.02269976     0.38837350     0.23738362
O       0.22436703     3.36482800     2.40899497     0.12181814     0.34135264    -0.00678437
O       5.12481300     2.10167502     6.78746803     0.23142688    -0.12406503    -0.02250642
O       2.51995402     1.86246801     2.08697199     0.30715207     0.49887802     0.72143665
O       2.57448299     3.56896003     6.99277700    -0.54225923     0.01965378     1.07780967
O       0.20693799     0.67638002     2.05778702     0.45297044    -0.27963945    -0.38292893
O       4.97310302     4.92210801     6.97917000    -1.41534191    -1.63714823     1.72306502
O       2.49569098     0.91138197     6.91584701    -0.05618840    -0.69012960     0.73942332
O       2.95540800     4.29350100     2.29845001     0.48421450     0.92597081    -1.17740602
