# total energy = -19961.26395209 eV

CRYSTAL
PRIMVEC
        7.60600008     0.00000000     0.00000000
        0.00000000     7.60600008     0.00000000
       -1.89786986    -1.89786986     4.85670466
PRIMCOORD
24 1
Ti      3.77747698     6.77296201     1.16905801     0.39407107    -0.17847371     1.25091311
Ti      3.84281402     2.92615900     1.24794400    -0.79262332    -0.28985882    -1.85007422
Ti     -0.05738102     6.52905199     1.19771201    -0.16982683     0.82016010     1.54427378
Ti     -0.03038901     2.79253899     1.19461198     1.06598979    -1.00435683    -0.37775253
Ti      5.66645121     2.90487322     3.63025579     0.80759974    -1.54850890     0.23339969
Ti      5.64494423    -1.03577477     3.64086183     0.65957511     1.24469207     0.65712588
Ti      1.91978923     3.00099324     3.64482081    -0.42256405    -2.20929783    -0.40882638
Ti      1.94842624    -0.92351077     3.60357584    -0.84703302     2.22030987     0.12173432
O       3.92958300     4.78132098     0.75274099    -0.35001880     0.65551174     0.27746301
O       3.96564198     1.03221198     0.74199599    -0.55418169    -1.09694692     0.61451342
O       0.06846998     4.61388898     0.76707100    -0.14782872     1.17987505    -0.05634292
O      -0.04076199     0.79841501     0.77251798     0.28923919     0.67105329     0.77836320
O       5.32151422     4.71035122     4.14222584     0.66152401    -1.00556859    -0.72219666
O       5.74227623     0.87652322     4.05989782    -0.21647951     0.25540731     0.29149507
O       2.06179823     4.88761824     4.09964580    -0.23298548    -1.67113103    -0.32071310
O       1.91964424     1.02558022     4.06705584    -0.31427685    -0.14279218    -0.13488655
O       3.86793221     2.78970525     3.15207181    -0.87143949     0.32701693     1.01551928
O       3.75861123    -0.79962276     3.20952680     0.33148988     0.05394228    -0.51684643
O       0.06053724     2.99285020     3.22086781    -0.60953885     0.32768208     0.30629640
O      -0.09126979    -1.05101180     3.22704479     1.18737162    -0.18631686     0.07417918
O       5.68471402     6.47409799     1.74735000    -0.62593915     0.12292963    -1.53667514
O       5.72531001     2.71704699     1.68497000     0.75324583     0.49549521    -0.28211209
O       1.90136799     6.48903000     1.65573799     0.04243145     0.45992065    -0.87466134
O       1.93965899     2.71360501     1.66109501    -0.03780166     0.49925520    -0.08418926
