# total energy = -19074.34289917 eV

CRYSTAL
PRIMVEC
        5.17600016     0.00000000     0.00000000
        0.00000000     5.50899976     0.00000000
        0.00000000     0.00000000     9.26300011
PRIMCOORD
22 1
Ti      1.89536998     3.51935601     3.37812299     0.84101407    -0.59489898    -0.19643647
Ti      3.50680001     2.15410998     5.94785000     1.59726038     1.06543881    -1.59783708
Ti      4.43120900     2.20850898     1.31225703    -0.21538242     0.36010473    -2.31375279
Ti      0.64306202     3.26249798     8.00510398     0.21818518    -1.12844063     2.19871285
Ti      1.83141600     0.48948001     1.27398100    -0.39600300     2.07347488    -1.90719798
Ti      3.15740300     5.06180498     8.01520301     0.81420260    -0.36100796     1.72497458
Ti      0.72438597     0.10678199     6.01998199    -0.68377023     1.54678163    -1.14339237
Ti      4.45086598     4.94499201     3.28852302    -0.37797056     0.70252669     2.58941629
O       3.66379499     3.34252302     4.38679098    -1.08570013     0.26030912     0.98239060
O       0.90541000     1.90989801     0.12404402    -0.37231516     0.20342833     0.06840757
O       4.32680302     3.61756300     9.08646499    -0.94392534     0.71637234    -0.66303093
O       3.50138901     0.90105101     0.18942201    -0.43747259    -0.43428134    -0.55748659
O       1.67209099     4.68584402     9.22786200    -0.22064958    -0.17482737    -0.92625003
O       4.31754898     0.77592699     4.81290000    -0.28954643    -0.54057978     0.60723129
O       1.11829398     5.09588600     4.26099300     0.32308237    -1.70767053     1.38079450
O       0.18431101     3.68896102     2.34645400     0.78231011    -1.96776779    -0.22148622
O       5.12828599     1.79309700     6.87869702    -0.09055969     0.21594858    -0.03314410
O       2.54724502     2.18957999     2.13837902     0.95804713    -0.13196372     0.61610005
O       2.30660002     3.69456400     6.99687997    -0.65969646    -0.84036924    -0.97479762
O       0.09138500     0.74112401     2.17636903     0.24915284     0.75597994    -0.10031368
O       2.42477298     0.79501500     6.65407599    -0.59535047    -0.33698125     0.58920450
O       2.77947900     4.84371902     2.40720598     0.58508817     0.31842353    -0.12210688
