# total energy = -4985.45499834 eV

CRYSTAL
PRIMVEC
        4.01113079     0.00000000     0.00000000
        0.00000000     3.38414495     0.00000000
        0.00000000    -0.00007644     5.31262911
PRIMCOORD
6 1
Ti      2.00556528     1.69203420     2.65631472     0.00000000     0.00000000     0.00000000
Ti      0.00000000     0.00000000     0.00000000     0.00000000     0.00000000     0.00000000
O       2.00556528     0.65950510     1.03535322    -0.00000000    -0.19225354     1.18657046
O       2.00556528     2.72456335     4.27727617    -0.00000000     0.19225354    -1.18657046
O       0.00000000     1.03249864     3.69166895     0.00000000     0.19237361     1.18678284
O       0.00000000     2.35156976     1.62096049     0.00000000    -0.19237361    -1.18678284
