# total energy = -19926.49545401 eV

CRYSTAL
PRIMVEC
        7.05325666     0.00000000     0.00000000
        0.00002980     5.54850294     0.00000000
        0.00000000     0.00000000    11.22987116
PRIMCOORD
24 1
Ti      2.55648398     3.28803775     4.16620211     0.48538023    -0.65018595     0.99627122
Ti      4.49680255     2.26046538     7.06366912    -0.48538023     0.65018595    -0.99627122
Ti      6.08299049     2.26046731     1.44868864     0.48423275     0.65053176    -0.99712945
Ti      0.97029603     3.28803607     9.78118271    -0.48423275    -0.65053176     0.99712945
Ti      2.55646920     0.51378640     1.44873366     0.48538023    -0.65018595    -0.99627122
Ti      4.49681732     5.03471691     9.78113769    -0.48538023     0.65018595     0.99627122
Ti      0.97028126     0.51378429     7.06362409    -0.48423275    -0.65053176    -0.99712945
Ti      6.08300527     5.03471903     4.16624713     0.48423275     0.65053176     0.99712945
O       2.23241080     1.95372224     5.73051730     0.84902640     1.32643081    -1.07784130
O       4.82087579     3.59478088     5.49935393    -0.84902640    -1.32643081     1.07784130
O       1.29427982     1.95374463     0.11561784    -0.84905520     1.32556538    -1.07707331
O       5.75900683     3.59475856    11.11425307     0.84905520    -1.32556538     1.07707331
O       4.82086101     0.82052935     0.11558141    -0.84902640    -1.32643081    -1.07784130
O       2.23242557     4.72797378    11.11428951     0.84902640     1.32643081     1.07784130
O       5.75899205     0.82050703     5.73055373     0.84905520    -1.32556538    -1.07707331
O       1.29429447     4.72799616     5.49931749    -0.84905520     1.32556538     1.07707331
O       0.25627927     3.37491401     3.03346836    -1.34601826     0.27263371     0.08747590
O       6.79700732     2.17358912     8.19640286     1.34601826    -0.27263371    -0.08747590
O       3.78291520     2.17353737     2.58150296    -1.34545981    -0.27222465    -0.08720620
O       3.27037139     3.37496582     8.64836808     1.34545981     0.27222465     0.08720620
O       0.25626449     0.60066254     2.58146709    -1.34601826     0.27263371    -0.08747590
O       6.79702209     4.94784065     8.64840394     1.34601826    -0.27263371     0.08747590
O       3.27035661     0.60071429     8.19643867     1.34545981     0.27222465    -0.08720620
O       3.78292997     4.94778884     3.03343249    -1.34545981    -0.27222465     0.08720620
