# total energy = -19958.44731559 eV

CRYSTAL
PRIMVEC
        7.60600008     0.00000000     0.00000000
        0.00000000     7.60600008     0.00000000
       -1.89786986    -1.89786986     4.85670466
PRIMCOORD
24 1
Ti      3.70831801     6.58845102     1.36132298    -0.31247245     2.55430092    -0.14527124
Ti      3.59592700     3.09621799     1.14416398     1.56369821    -4.05325925     1.64056934
Ti     -0.02119900     6.56833297     1.17301700     0.68881499     2.41987511     0.52128750
Ti      0.11722901     3.06939998     1.13177901    -1.03042577    -1.21089105    -1.44815357
Ti      5.62798225     2.80398224     3.50881279    -0.85731873     1.51645598    -1.30648033
Ti      6.00290322    -1.01370379     3.74358381    -1.20952245    -1.47626808     0.01512118
Ti      1.72966024     2.86626222     3.57628680     1.40827317     0.55627586     0.40102925
Ti      1.98958925    -1.04277076     3.82325779     1.22159353    -0.04686763    -1.20314868
O       3.54424200     4.76515398     0.71004802    -0.20936835     1.41687351     0.03504672
O       3.66663599     0.82543602     0.76416799     1.23601125     0.83959096     2.06058980
O       0.46882998     4.89991701     0.54533203     0.16486871    -3.36320036     0.47007882
O       0.13272702     0.83194998     0.81886602    -0.34457629     0.85824484    -0.58078131
O       5.44383724     4.74646021     4.06689481     0.65901924    -0.60229117    -0.66625998
O       5.67925323     0.88222224     4.06731979     0.14348149     1.61618319    -0.79047233
O       1.99692222     4.74760821     4.15693284    -0.02195517    -2.85194762    -1.08759889
O       1.60928924     0.83992024     4.22317980     0.36151524     2.39641970    -2.01074046
O       3.62414723     3.08889222     3.11785780     1.38461773    -1.35010631     0.55825124
O       3.89107921    -0.96041078     3.17334283     0.21887501     0.10044018     1.51173929
O      -0.04887576     3.07095523     2.96756781     0.88949481     0.14797707     2.85579013
O       0.20705124     6.26891120     3.30910283    -2.70966631     0.59290921    -0.46143400
O       5.85572400     6.42049800     1.69167098    -0.43151020     0.14447265     0.26039294
O       5.82998402     2.90704200     1.57751400    -2.19882367     0.08994802    -0.26723285
O       1.94671102     6.87608198     1.78137901    -0.33550080    -1.13981056    -0.66478725
O       1.85294399     2.54008001     1.59157001    -0.27912343     0.84467532     0.30246443
