# total energy = -19960.36717509 eV

CRYSTAL
PRIMVEC
        7.60600008     0.00000000     0.00000000
        0.00000000     7.60600008     0.00000000
       -1.89786986    -1.89786986     4.85670466
PRIMCOORD
24 1
Ti      3.70329601     6.74034500     1.31437500     1.01538507     0.74966480    -0.74000182
Ti      3.78742202     3.11546100     1.27981999    -0.84500957    -1.70799526    -1.14828904
Ti      0.10787400     6.55321798     1.17536501    -1.38279919     1.80887305     0.15459663
Ti      0.02010498     2.91641298     1.13018401     0.69780897    -2.17280229     0.61398018
Ti      5.70480021     2.80891020     3.54058380    -0.01463087    -0.89449329    -0.15563459
Ti      5.77015625    -1.09425177     3.59928580    -0.10430815     0.94961057     0.62291116
Ti      1.83834822     3.02620620     3.63289982     0.26431773    -2.56692119    -0.51411541
Ti      1.87109223    -0.96424578     3.68821483    -0.60698549     1.42499203     1.16153099
O       3.70578701     4.86118801     0.74935002     0.50698856     0.75391689     1.03255696
O       3.63660999     0.99910602     0.73251599     0.53603253    -1.54834949     1.23328485
O       0.12468702     4.65918100     0.59782001    -0.28277466     0.89633369     1.84530302
O       0.20060199     0.81105701     0.79041401    -0.59628995    -0.11362352    -0.16598431
O       5.92440422     4.67732421     4.06080181    -0.74999981    -0.57042902    -0.82381493
O       5.62881322     0.87390823     4.13445582    -0.09338404    -0.55532404    -1.62357460
O       1.79065522     4.81196722     4.12561883     0.08679816    -0.11123008    -0.49455393
O       1.79708621     1.04759622     4.27610080     0.60066237    -0.69963343    -1.88174456
O       3.76041323     2.85186722     3.27340580     0.70325251     0.52853724     0.32730130
O       3.72226220    -1.06298575     3.18666180     0.78776830     0.42153226     0.78637425
O       0.06495122     2.64445022     3.12895480    -1.44466252     0.81263319     0.17672098
O      -0.04527376    -1.04258078     3.21931579     1.46084659     0.43690284    -0.11201092
O       5.77015000     6.62309102     1.66318198    -1.21278930    -0.19465161    -0.53670230
O       5.65601399     2.85373501     1.62254699     1.05156307     0.18533290    -0.19406900
O       1.87062602     6.32142898     1.67303198     0.32747176     0.87501152     0.12802607
O       1.93508701     2.71808100     1.63223199    -0.70526234     1.29211274     0.30790900
