# total energy = -19518.40104293 eV

CRYSTAL
PRIMVEC
        7.60600008     0.00000000     0.00000000
        0.00000000     7.60600008     0.00000000
       -1.89786986    -1.89786986     4.85670466
PRIMCOORD
23 1
Ti      3.75921899     6.72380599     1.31378899     1.61052393     0.51629185    -1.32153363
Ti      3.83795299     2.97018702     1.15417998    -0.22110647    -0.54439350     1.57264797
Ti      0.05274400     6.62642600     1.22657698    -1.27586105    -0.77036476     0.26907479
Ti     -0.02347801     2.81084900     0.94828600     0.34367229     0.81149677     1.72091095
Ti      5.67637821     2.78444623     3.61791882    -1.17197636    -0.18537429     0.35270663
Ti      5.63913424    -1.10779177     3.60713784     1.14129152     0.04872834    -0.66056267
Ti      2.09932722     2.95193120     3.67692081     0.35465219     0.45342321    -0.69035277
Ti      1.87673421    -0.87137877     3.71585884    -0.52809116    -0.41525620     0.35034842
O       3.91340901     4.80238700     1.07363502    -0.27448542    -0.36346079    -1.37774260
O       3.55619902     1.07140502     0.82205601     0.64633958    -0.57185752    -0.36354872
O       7.31144902     4.71482700     0.74020102     1.40749515    -0.18270343     0.30844482
O      -0.12644802     0.92383902     0.71686398     0.68999693    -1.49046571     0.21480984
O       5.56251720     4.61506921     4.06737282     1.01249154     1.59022275    -0.53112917
O       5.88685423     0.90293022     3.99571280     0.32767848    -0.09505526    -1.01389640
O       1.96438120     4.85012021     4.09253080    -0.04131456    -1.21239283     0.42702157
O       1.74118821     1.10967623     3.99811082    -0.06773959    -0.14929913     0.85057421
O       3.87577123     2.58873124     3.31182179    -0.92349175     0.72573296    -1.04821498
O       3.80779322    -0.88791577     3.24119483    -0.07739460     0.51833870     0.72134357
O       0.05553620    -1.01210780     3.22808780    -0.44250862    -0.02994411    -0.45900868
O       5.73134602     6.53457300     1.61090202     0.02336105     0.93531677     0.86663152
O       5.81185198     2.70510701     1.68960401    -0.09792230     0.27502407    -0.78715329
O       2.00488400     6.50700498     1.62361799    -2.65031726     0.30897935    -0.01366619
O       1.71172600     3.01308102     1.73970201     0.21470699    -0.17298697     0.61229482
