# total energy = -19925.49325149 eV

CRYSTAL
PRIMVEC
        6.01681253     0.00000000     0.00000000
        0.00002270     3.84222467     0.00000000
        0.00000000     0.00000000     9.18935143
PRIMCOORD
24 1
Ti      2.18081843     2.27689877     3.40918385    -0.68695300     2.93545759    -4.05535367
Ti      3.83601641     1.56532586     5.78016767     0.68695300    -2.93545759     4.05535367
Ti      5.18912118     1.56532715     1.18545520    -0.68330949    -2.93545168     4.05822045
Ti      0.82771371     2.27689762     8.00389638     0.68330949     2.93545168    -4.05822045
Ti      2.18080728     0.35578648     1.18549206    -0.68695300     2.93545759     4.05535367
Ti      3.83602757     3.48643824     8.00385957     0.68695300    -2.93545759    -4.05535367
Ti      0.82770251     0.35578509     5.78013081     0.68330949     2.93545168     4.05822045
Ti      5.18913233     3.48643963     3.40922067    -0.68330949    -2.93545168    -4.05822045
O       1.90436704     1.35291258     4.68925571     2.95699393    -2.89157142     4.37389470
O       4.11246785     2.48931199     4.50009581    -2.95699393     2.89157142    -4.37389470
O       1.10409018     1.35292810     0.09460953    -2.95542556    -2.89271736     4.37462129
O       4.91274476     2.48929652     9.09474170     2.95542556     2.89271736    -4.37462129
O       4.11245670     0.56819960     0.09457970    -2.95699393     2.89157142     4.37389470
O       1.90437819     3.27402497     9.09477153     2.95699393    -2.89157142    -4.37389470
O       4.91273355     0.56818414     4.68928549     2.95542556     2.89271736     4.37462129
O       1.10410124     3.27404048     4.50006599    -2.95542556    -2.89271736    -4.37462129
O       0.21861844     2.33705885     2.48227308     2.89207741    -0.52823694     2.43236065
O       5.79821645     1.50516572     6.70707840    -2.89207741     0.52823694    -2.43236065
O       3.22703164     1.50513000     2.11243187     2.89384864     0.52842360    -2.43260208
O       2.78980321     2.33709462     7.07691946    -2.89384864    -0.52842360     2.43260208
O       0.21860724     0.41594647     2.11240254     2.89207741    -0.52823694    -2.43236065
O       5.79822760     3.42627810     7.07694879    -2.89207741     0.52823694     2.43236065
O       2.78979205     0.41598224     6.70710768    -2.89384864    -0.52842360    -2.43260208
O       3.22704279     3.42624234     2.48224374     2.89384864     0.52842360     2.43260208
