# total energy = -19002.49827416 eV

CRYSTAL
PRIMVEC
        7.60600008     0.00000000     0.00000000
        0.00000000     7.60600008     0.00000000
       -1.89786986    -1.89786986     4.85670466
PRIMCOORD
22 1
Ti      4.47367400     6.12743201     0.58789698     1.16206167    -0.48312872    -3.51099694
Ti      4.53456124     3.19538121     3.19260483    -3.08787470     6.31746995    -7.89718666
Ti      1.13631400     5.84586802     0.42512798     6.61419619    15.26164799    15.60674647
Ti      0.43027101     2.96701000     0.69556100    -0.95767149    -3.74303317     9.12917464
Ti     -1.71986676     2.60577123     4.49326980   -36.97317060    28.66370354    32.56742686
Ti      6.07050323     1.51433124     3.51792580     1.67997331   -34.13563608   -38.72512069
Ti     -0.25666076     2.57391322     3.92364880    43.43601026     4.33741536   -11.52269877
Ti      0.22616522    -0.90240279     4.15099081     7.71376383    -1.36176935    -5.04407330
O       4.17729198     5.34568301     2.02814902     0.03248410    -1.42473209     2.20104870
O       4.38366899     0.24210902     0.15082901    -2.63477314     0.62396403     0.20984889
O       1.70969301     4.15780302     1.22239199     1.78059887     0.39563225    -0.97601092
O       0.73235300     1.23902202     0.31029599    -1.25556424    -4.64430261     3.06138513
O      -1.00651878     4.70974621     3.63384282     0.79719140     1.81670746    -2.45220880
O       4.85061420     1.33249922     2.58096181   -10.19286716    -1.07428520    -6.28477167
O       1.09083921     3.64442324     4.18787283     1.86079315     3.03764253     2.56801339
O       0.78453925     0.79458425     3.85735581    -1.84399741    -2.26004731     1.33684841
O       3.10957924     2.67689921     3.79152780    -1.51884942    -0.12351353     2.65970025
O       0.44804099     2.54974602     2.21270302     2.69040540    -2.72656104     6.66779780
O       7.10843302     6.44879601     0.54098298    -5.16265339    -0.95373076     0.08546864
O       6.28907101     2.68928799     1.75621001    -1.14033584     1.26774459    -1.50710898
O       1.34380102     6.39517702     2.08255198    -0.38743659     1.44617870     1.82683684
O       5.73151022    -0.03596580     4.07305480    -2.61228446   -10.23736628    -0.00011981
