# total energy = -4981.82198117 eV

CRYSTAL
PRIMVEC
        4.40274989     0.00000000     0.00000000
        0.00000000     2.95647812     0.00000000
        0.00000000    -0.00009475     5.86602844
PRIMCOORD
6 1
Ti      2.20137495     1.47819163     2.93301411     0.00000000     0.00000000     0.00000000
Ti      0.00000000     0.00000000     0.00000000     0.00000000     0.00000000     0.00000000
O       2.20137495     0.57615557     1.14320253     0.00000000    -0.11020215     2.41751021
O       2.20137495     2.38022774     4.72282569     0.00000000     0.11020215    -2.41751021
O       0.00000000     0.90199848     4.07621776    -0.00000000     0.11002320     2.41865281
O       0.00000000     2.05438477     1.78981041    -0.00000000    -0.11002320    -2.41865281
