# total energy = -19960.07507994 eV

CRYSTAL
PRIMVEC
        7.60600008     0.00000000     0.00000000
        0.00000000     7.60600008     0.00000000
       -1.89786986    -1.89786986     4.85670466
PRIMCOORD
24 1
Ti      3.86130998     6.78369499     1.05796100    -0.83004343     0.42418821     0.11201606
Ti      3.77012602     2.94260101     1.24925498     1.17399519    -1.13477557    -1.49720920
Ti     -0.11883199     6.63869201     1.22708103     0.76220279    -1.44210479     0.33839818
Ti     -0.03316200     2.65133000     1.25544598    -0.28593429     1.88995950     1.42505477
Ti      5.56319524     2.80868424     3.74957484     1.17849462    -1.22506478    -0.27273347
Ti      5.67399823    -0.98525575     3.65672481    -0.26711175     0.93386152    -0.13574658
Ti      1.92772123     2.88971922     3.60309180    -1.50037372    -0.45705875     0.79803729
Ti      1.92809224    -0.85549578     3.46092981     0.78408468     0.54753822     1.27902762
O       3.98897002     4.85913702     0.81754800    -0.42683182    -0.83558390     0.12705291
O       4.06883700     1.14872199     0.62201097    -1.01570131    -1.67955062     0.13127852
O      -0.19144903     4.69281900     0.89957899     0.16467819     0.89562072    -0.32203465
O      -0.14353102     0.88218197     0.88241799     0.39978844    -0.72780013    -0.87888103
O       5.63313321     4.68382420     4.13269879    -0.31887733     0.54550833    -0.47241544
O       5.85248221     0.86944923     4.22004082    -0.21867986    -0.28661152    -0.81340195
O       2.18224723     4.80825023     3.99640279    -0.43647295     0.11814995    -0.60502476
O       1.92266923     1.01717721     4.08746583    -0.69679750    -0.22076760    -0.02684001
O       3.75140023     2.40873721     3.31675579     1.84728277     1.66186374    -0.95956845
O       3.85205123    -0.86553279     3.06423182    -0.65686311    -0.19575333     1.04142855
O       0.03999622     2.72652921     3.30949479    -0.10295755     0.65816717     0.02557220
O       0.06116421    -1.03531978     3.36940681    -0.96653640    -0.15678953    -1.60795000
O       5.61330700    -0.61942398     1.70788301     3.00121230    -1.14640467     0.11697521
O       5.76134698     2.72428598     1.72479202    -1.52258806     0.81668603     0.86208041
O       1.92393603     6.73271898     1.36536203    -0.63642103     0.17201586     1.45337779
O       1.91637599     2.69126198     1.65148700     0.57045113     0.84470618    -0.11849370
