# total energy = -4988.69590296 eV

CRYSTAL
PRIMVEC
        3.31763819     0.00000000     0.00000000
        0.00000000     4.70317134     0.00000000
        0.00000000    -0.00006433     4.96311411
PRIMCOORD
6 1
Ti      1.65881909     2.35155334     2.48155705     0.00000000     0.00000000     0.00000000
Ti      0.00000000     0.00000000     0.00000000     0.00000000     0.00000000     0.00000000
O       1.65881909     0.91656622     0.96723783     0.00000000    -0.14910296    -0.22380921
O       1.65881909     3.78654040     3.99587622     0.00000000     0.14910296     0.22380921
O       0.00000000     1.43496106     3.44879589    -0.00000000     0.14902428    -0.22396425
O       0.00000000     3.26814562     1.51431816    -0.00000000    -0.14902428     0.22396425
