# total energy = -4981.13329979 eV

CRYSTAL
PRIMVEC
        4.54095918     0.00000000     0.00000000
       -0.00000737     3.02730577     0.00000000
       -2.27050635    -1.51369908     5.03061965
PRIMCOORD
6 1
Ti     -0.00019516     2.27058930     1.25765465    -0.00701192    -0.00969101    13.48200814
Ti      2.27064067    -0.75698293     3.77296432     0.00701192     0.00969101   -13.48200814
O       0.00004779     0.75681822     0.81944671     0.00490721     0.00971312    -6.29259786
O       2.27039762     0.75678810     4.21117231    -0.00490721    -0.00971312     6.29259786
O      -0.00001946    -0.75682101     3.33475643    -0.00204788    -0.00028462    -1.21454099
O       2.27046481     2.27042728     1.69586264     0.00204788     0.00028462     1.21454099
