# total energy = -4989.70462792 eV

CRYSTAL
PRIMVEC
        3.22418359     0.00000000     0.00000000
        0.00000000     4.57068764     0.00000000
        0.00000000    -0.00006252     4.82330808
PRIMCOORD
6 1
Ti      1.61209179     2.28531240     2.41165404     0.00000000     0.00000000     0.00000000
Ti      0.00000000     0.00000000     0.00000000     0.00000000     0.00000000     0.00000000
O       1.61209179     0.89074745     0.93999169    -0.00000000    -0.07099076    -0.15451616
O       1.61209179     3.67987729     3.88331633    -0.00000000     0.07099076     0.15451616
O       0.00000000     1.39453962     3.35164671     0.00000000     0.07099307    -0.15455293
O       0.00000000     3.17608518     1.47166131     0.00000000    -0.07099307     0.15455293
