# total energy = -4990.06509103 eV

CRYSTAL
PRIMVEC
        3.67118463     0.00000000     0.00000000
        0.18343673     3.66659891     0.00000000
       -1.92734327    -1.83333046     4.68671387
PRIMCOORD
6 1
Ti      0.13742924     2.75008841     1.17167834     0.00224483    -0.00206125    -0.00140562
Ti      1.78984838    -0.91682041     3.51503527    -0.00224483     0.00206125     0.00140562
O       0.04589780     0.91664373     0.76342737     0.00001517     0.00072942     0.62273093
O       1.88137966     0.91662418     3.92328630    -0.00001517    -0.00072942    -0.62273093
O      -0.04587970    -0.91662651     3.10678430     0.00070628    -0.00003600     0.62115510
O       1.97315716     2.74989436     1.57992941    -0.00070628     0.00003600    -0.62115510
