# total energy = -19517.59538220 eV

CRYSTAL
PRIMVEC
        5.93400000     0.00000000     0.00000000
        0.00000000     9.29699974     0.00000000
        0.00000000     0.00000000     4.64899994
PRIMCOORD
23 1
Ti      4.46808398     7.10707002     2.21789801     0.66685339     0.73105669     0.00636245
Ti      4.47220400     2.28074400     2.35793302    -0.45785168    -0.90297408     0.08370307
Ti      1.39298598     7.02161398     2.19365201    -0.09726461     0.97994162     0.39082479
Ti      1.43988098     2.27965501     2.38559301     0.77411445    -0.76298826    -0.17766484
Ti      2.95997999     4.41039202     0.19906399     0.47024569     0.17708608     0.27526086
Ti      2.96745202     0.00477699     4.60129700     0.26953990    -0.51194437    -0.86294070
Ti      0.01326901     4.62269502     4.62959798    -0.50667720     0.21684538     0.05595854
Ti      0.04475702     0.15348500     0.04140399    -0.22059585    -1.12368177     0.08735043
O       4.46461602     5.54983399     0.90586297    -0.22312530     0.46359141     0.20294470
O       4.34168698     0.86581399     0.97757702     1.38899940     0.76092006     0.70904495
O       1.59001100     5.45565197     0.96624501    -0.80816487     0.77879541    -0.10433258
O       1.67265499     0.96387800     0.92347399    -2.05789939    -0.01157074     0.48452483
O       4.50987702     8.59313802     3.68136802    -0.21432878    -1.89936408    -1.01493615
O       4.39029900     3.74682200     3.83310599     1.13057079    -0.19499074    -1.41773381
O       1.33373802     8.39137098     3.61326698     0.97368818     0.17622296     0.57550952
O       1.54124298     3.61780298     3.78599398    -0.45711609     1.48910534    -0.00221835
O       2.93595100     1.45699103     3.37182398     0.49476476     0.65675152    -1.44693692
O       5.91632300     6.14493699     3.11591201    -0.35714102    -0.98974293     0.74694585
O       0.00059702     1.38898201     3.31014499    -0.00012598     1.49015152    -1.06872365
O       2.90769601     7.91327802     1.23588997     0.45371272    -1.84019912     1.53908555
O       3.01624598     3.10991998     1.41594798    -0.19408391     0.42611114     0.63899419
O       0.01953601     7.96204102     1.32269298    -0.45123700    -0.33093092     0.05314087
O       0.04742698     3.18244002     1.38544901    -0.57687786     0.22180684     0.24583586
