# total energy = -4990.13770246 eV

CRYSTAL
PRIMVEC
        3.69366199     0.00000000     0.00000000
        0.36843652     3.67524059     0.00000000
       -2.03108201    -1.83764994     4.71985285
PRIMCOORD
6 1
Ti      0.27618585     2.75657025     1.17996298     0.00168587    -0.00168587     0.00000000
Ti      1.75483032    -0.91897989     3.53988930    -0.00168587     0.00168587     0.00000000
O       0.09214807     0.91880434     0.76882538    -0.00010824     0.00034864     0.41296200
O       1.93886799     0.91878593     3.95102700     0.00010824    -0.00034864    -0.41296200
O      -0.09212762    -0.91878584     3.12875170     0.00034864    -0.00010824     0.41296200
O       2.12314363     2.75637606     1.59110068    -0.00034864     0.00010824    -0.41296200
