# total energy = -19946.75333825 eV

CRYSTAL
PRIMVEC
        5.62474898     0.00000000     0.00000000
        0.00002376     4.42475551     0.00000000
        0.00000000     0.00000000     8.95546688
PRIMCOORD
24 1
Ti      2.03871507     2.62210605     3.32241434    -0.43593842     1.86270682    -3.34701937
Ti      3.58605773     1.80264961     5.63305259     0.43593842    -1.86270682     3.34701937
Ti      4.85099242     1.80265115     1.15528334    -0.43296391    -1.86268703     3.34848721
Ti      0.77378038     2.62210471     7.80018368     0.43296391     1.86268703    -3.34848721
Ti      2.03870329     0.40972840     1.15531925    -0.43593842     1.86270682     3.34701937
Ti      3.58606951     4.01502741     7.80014778     0.43593842    -1.86270682    -3.34701937
Ti      0.77376860     0.40972671     5.63301668     0.43296391     1.86268703     3.34848721
Ti      4.85100420     4.01502910     3.32245024    -0.43296391    -1.86268703    -3.34848721
O       1.78027697     1.55803166     4.56990620     0.90078170    -1.98257658     2.35524990
O       3.84449588     2.86672400     4.38556073    -0.90078170     1.98257658    -2.35524990
O       1.03214720     1.55804951     0.09220157    -0.90049014    -1.98339497     2.35548978
O       4.59262570     2.86670620     8.86326511     0.90049014     1.98339497    -2.35548978
O       3.84448410     0.65434619     0.09217251    -0.90078170     1.98257658     2.35524990
O       1.78028875     3.77040947     8.86329416     0.90078170    -1.98257658    -2.35524990
O       4.59261392     0.65432839     4.56993526     0.90049014     1.98339497     2.35548978
O       1.03215888     3.77042732     4.38553167    -0.90049014    -1.98339497    -2.35548978
O       0.20437460     2.69138712     2.41909502     1.58766373    -0.63808968     0.91883291
O       5.42039824     1.73336854     6.53637190    -1.58766373     0.63808968    -0.91883291
O       3.01675516     1.73332727     2.05866692     1.58830831     0.63814341    -0.91885810
O       2.60801769     2.69142844     6.89679986    -1.58830831    -0.63814341     0.91885810
O       0.20436282     0.47900937     2.05863831     1.58766373    -0.63808968    -0.91883291
O       5.42041002     3.94574634     6.89682846    -1.58766373     0.63808968     0.91883291
O       2.60800591     0.47905063     6.53640046    -1.58830831    -0.63814341    -0.91885810
O       3.01676694     3.94570502     2.41906642     1.58830831     0.63814341     0.91885810
