# total energy = -39036.59945565 eV

CRYSTAL
PRIMVEC
        7.60600008     0.00000000     0.00000000
        0.00000000     7.60600008     0.00000000
       -3.79573973    -3.79573973     9.71340985
PRIMCOORD
46 1
Ti      1.81052942     4.77080745     6.05671361    -0.47235065    -0.02086502     0.13404708
Ti      3.87143398     6.76493502     1.17066502    -0.35020958    -0.66337417     0.65029239
Ti      1.88416047     0.70001546     6.09898662     0.82903247    -0.50783446     1.76675810
Ti      4.04415998     2.75946298     1.25830698    -1.15673254    -0.03668169    -0.89001880
Ti     -2.04425855     4.65562646     6.03652264     0.46887555     1.65026343     0.44248522
Ti     -0.11048200     6.72505998     1.11925100     0.27669991     0.16558759    -0.10476349
Ti     -1.83079157     0.96418344     6.07574664    -1.35071926    -1.54578585     0.79342525
Ti      0.09789398     2.94103502     1.23518998     0.40455218    -0.45328154    -0.85203716
Ti      3.86628842     1.12187847     8.48162365    -1.10200813    -1.40934121    -0.79522630
Ti      5.73932098     2.79769800     3.69347601     0.73153903     0.43537792     0.02729973
Ti      3.74779146    -2.75113553     8.46047862    -0.59962493     0.55351089    -0.49604209
Ti      5.68474201    -0.97296498     3.71629202    -1.04314271    -0.55133908     0.19779890
Ti     -0.00600055     1.01260146     8.46951660     0.71480088    -0.83688385     0.15320695
Ti      1.92553700     2.81484403     3.64167999     0.06549399     1.03623852     0.32069819
Ti     -0.11099556    -2.89448155     8.46921460     0.74020211     0.16196259     0.09176091
Ti      1.78412300    -0.82707197     3.47712100     1.16308625    -1.30421005     0.73267366
O       1.86739344    -1.07337752     5.61012061    -0.45308228     0.96198040    -0.47575145
O       4.00215098     0.94719500     0.81131101    -0.39818278     0.52759674    -0.83399521
O      -2.02971157     2.82786544     5.71610460     0.12340940    -0.22087841    -0.91487032
O      -0.09127000     4.76511599     0.77384399     0.71740850     0.30381040    -0.15281100
O      -1.94223455    -1.00071757     5.86674565     0.05561247    -0.04724995    -1.33549601
O      -0.13977698     0.95504201     0.65271998     0.37879280     0.17883803     1.74593859
O       3.52223145     2.94063845     8.86335963     0.59883766    -1.51745794     0.44086311
O       5.72607801     4.74123898     3.97483400    -0.20960926    -0.58931095     1.28389909
O       4.02515643    -0.96424355     8.91792161    -0.26721614     1.08594053     0.03257872
O       5.84869901     0.89927498     4.18310901    -0.22369866     0.59324088    -0.76615175
O       0.15395946     2.83536145     8.83602265    -0.33612610     0.24060084     0.86366601
O       2.12329900     4.67543103     4.14742500    -0.67858971    -1.19892462    -0.89138071
O      -0.14259755    -0.79507157     9.02897163     0.16182195    -0.40451052     0.34950329
O       1.74119699     0.92081001     4.25997598     0.48941044     1.48008205    -2.37457149
O       1.96344747     0.81842146     7.98366764    -1.00890331     0.34336170     1.89139340
O       3.98675801     2.68241297     3.17446198    -1.15263883     0.07282112     0.98827483
O       1.79672943    -2.88741756     7.98180663     0.24642953     0.70707086     1.05984331
O       3.81172501    -1.00504899     3.12797397    -0.20587422     0.54975245     0.49328509
O      -1.88829557     1.19541247     8.07465062    -0.79408473     0.02814356     0.44646297
O       0.07854499     2.96308203     3.21262598    -0.84054484    -0.37773093     0.80911927
O      -1.99333355    -3.07063556     8.16158963     0.50684638     0.28974338    -0.79655428
O      -0.08560199    -0.86785799     3.37091099     1.59451187    -0.44320796    -1.45695394
O       3.68218247     4.75873644     6.42950962     1.32715664    -0.57853288     0.31242052
O       5.72488101     6.51772998     1.62123902    -0.01312754     0.09799712     0.31739458
O       3.72435742     0.84119344     6.47758765     1.51050876     0.80404468    -0.29106647
O       5.82694602     2.72176799     1.61152502     0.15813396     0.71197832     0.17876244
O      -0.08034355     4.61047245     6.45840164    -0.57704987    -0.04894919     0.04930683
O       1.94991101     6.78749999     1.49350399    -1.50060409    -0.43413864     0.87221570
O      -0.03476255     0.92809747     6.57221465     0.73100064     0.21818775    -1.36358712
O       1.95566602     2.82820898     1.83879299     0.73995682    -0.00764286    -2.65409653
