# total energy = -19072.10497028 eV

CRYSTAL
PRIMVEC
        5.17600016     0.00000000     0.00000000
        0.00000000     5.50899976     0.00000000
        0.00000000     0.00000000     9.26300011
PRIMCOORD
22 1
Ti      1.74073698     3.45390398     3.24832798    -0.61262855    -2.42619232     1.75881519
Ti      3.98942400     2.17103100     6.03194902    -1.81908290     0.09195991    -1.57969280
Ti      4.39484802     2.14410800     1.32552398     0.08915535    -1.58187823    -0.46513716
Ti      0.97494701     3.30459000     8.22815298    -0.30761127    -0.01518468     0.76088947
Ti      1.80371299     0.53413702     1.35288498    -1.35245810     2.03376649    -1.68490032
Ti      3.29256599     5.36722698     7.86580500    -0.58200361     0.85572490     0.16071098
Ti      1.01671698     5.50453102     6.00240500    -0.41941959     0.63987685    -0.63623925
Ti      4.15809602     4.94785999     3.55336702     2.16903048    -0.30124881     0.83046740
O       3.30434600     3.27332499     4.45993301     0.08138702     1.18107293     0.22166080
O       0.77778398     1.87778600     0.22722898     0.89490133     1.58635401    -1.18325451
O       4.40996698     3.85920099     8.22935601    -0.07325436    -0.84695461    -0.49796965
O       3.37634400     0.75064401     0.18912700     1.14785581     2.16051293     0.01784526
O       1.69175400     4.89160702     9.18041401    -1.31792174    -3.46408843    -2.30876511
O       4.15455302     0.84668900     4.66906899    -0.05862863     0.32856808     0.52058842
O       0.87168500     4.94277301     4.24106599    -0.26639287    -0.98995145     1.16181562
O       5.10952200     3.50460101     2.26609801     0.81743653     0.78521802     1.10455661
O       4.92575801     0.95602501     7.17041402     0.84876826    -0.54167584    -0.12767537
O       2.69782299     2.07081700     2.26840602    -0.79602206    -0.02482530    -0.62285640
O       1.75498799     3.89141900     6.51202301     0.18737153    -0.01702277     2.22444909
O       5.11445102     0.66403199     2.08117200     0.23872445    -0.65253003     1.33124058
O       2.47187901     1.15613402     6.48109498    -0.79032732    -0.10437809     0.92630659
O       2.47288201     4.87852603     2.61194498     1.92112051     1.30287667    -1.91285595
