# total energy = -19517.47089305 eV

CRYSTAL
PRIMVEC
        5.17600016     0.00000000     0.00000000
        0.00000000     5.50899976     0.00000000
        0.00000000     0.00000000     9.26300011
PRIMCOORD
23 1
Ti      1.91888201     3.18081402     3.46689502    -0.74443440    -0.34437754     1.91898521
Ti      3.40857000     2.28099001     5.92974499     0.41881923     0.66053002    -3.01103803
Ti      4.32456402     2.10815998     1.46379497     0.21511117     0.70424187    -0.63323518
Ti      0.76086698     3.49453998     7.77335900    -1.37705997     1.06181586     1.33454599
Ti      2.03969699     0.13239200     1.45206100    -1.59123037     0.15384999    -1.00837726
Ti      3.19435101     5.15884201     7.99267800    -0.01250919    -0.39527486     0.94313421
Ti      0.81201799     0.55720999     5.94027202    -0.56510194    -0.35857878    -3.11571719
Ti      4.56837201     4.97636503     3.25463699     0.45994353    -0.75704155     3.18695168
O       1.76710498     1.82736499     4.81912800     0.36650446     0.42275662    -0.50401020
O       3.52631802     3.53217501     4.46369901     0.34147091    -0.06940387     0.36145353
O       4.74402499     2.88956798     9.15622399     0.20353400     0.36730459    -0.34071783
O       3.37487601     0.66773702     0.35004398     1.80712264    -0.16909638    -1.90322228
O       1.51246600     4.81636903     9.02278798     0.39583845    -0.59058981     0.50053921
O       4.47040299     0.74042301     4.80898002    -1.46393372     0.63726255    -0.79146555
O       0.95919801     4.64171201     4.38121699     0.86367527    -0.34849645     0.17386577
O       0.20702398     3.40980198     2.37846102     0.79060937    -0.24958530     0.45616555
O       5.11570502     2.12810002     6.73766398     0.27219868    -0.05820286     0.21368369
O       2.56656898     1.85202698     2.14502998    -0.13599984     0.35011445     0.90887399
O       2.48993401     3.61422198     7.00433402     0.51106788    -0.79588862     0.20747010
O       0.23562998     0.64728601     2.03616002     0.09771378     0.29839720    -0.28795518
O       4.92209599     4.92803500     7.04901002    -0.51577506    -0.90379478     1.03110248
O       2.52539402     0.91008501     6.93300600    -0.61405140    -0.02134685     0.46778283
O       2.96925202     4.32866699     2.25980202     0.27648677     0.40540424    -0.10881581
