# total energy = -19075.76371161 eV

CRYSTAL
PRIMVEC
        7.60600008     0.00000000     0.00000000
        0.00000000     7.60600008     0.00000000
       -1.89786986    -1.89786986     4.85670466
PRIMCOORD
22 1
Ti      3.81161298     6.51553998     1.22888102     0.69131539    -0.01501936     1.12493364
Ti      3.75904298     2.73336602     1.19071300     0.94359315     0.37988706    -0.35347257
Ti      0.21916299     6.77227201     1.04089398    -0.74226490    -0.91064471     0.86440417
Ti      0.03768700     2.92739902     1.14105702    -0.79713895     0.54046280    -0.48916850
Ti      5.70475624     2.91425320     3.47046882    -0.27142606     0.46964122     1.00942730
Ti      6.01492422    -0.81927079     3.63835284    -0.40609124    -0.43072807    -0.20904465
Ti      1.89737625     2.79422723     3.63022282     0.22789444    -0.98890115     0.33701827
Ti      1.27273124    -1.14066278     3.95274879     1.27752301     1.58945554    -1.62239009
O       3.96501798     4.59572402     0.66787799    -0.60661345     0.52815955     1.15231847
O       3.99793502     0.84594302     0.88557601    -1.17221830    -0.27874600     0.71864083
O       0.25848599     4.88642400     0.63550801    -0.33254275    -0.85184125     0.40770666
O      -0.19775301     0.99018700     0.76738898     1.02236921     1.53804965     0.16094083
O       5.66650122     4.91932522     4.01574480     0.39236669    -0.00328099    -1.27217897
O       5.51300124     1.08878420     3.93558482     0.92674676    -1.33546413     0.34584230
O       1.85183023     4.65494425     4.28005481    -0.51552309     0.50798795    -1.91179460
O       1.77684422     0.71438225     4.04652979    -0.43754973     0.95225263     0.32847501
O       3.81744023     3.03519021     3.31504581    -0.66477002    -0.46451392    -1.09663453
O       0.05452822     2.95205524     3.10101282    -0.48695426    -0.05253794     0.41185077
O       5.74890301     6.61938699     1.77198802    -0.25860217    -0.17518192     0.30850344
O       5.70392299     2.90174901     1.53110701     0.31417632     0.11754394     0.50111925
O       1.93551299     6.64429600     2.04815901     0.33539770    -0.53100885    -0.20013474
O       1.91137701     2.91983502     1.63775199     0.56031249    -0.58557205    -0.51636281
