# total energy = -19073.59805251 eV

CRYSTAL
PRIMVEC
        5.93400000     0.00000000     0.00000000
        0.00000000     9.29699974     0.00000000
        0.00000000     0.00000000     4.64899994
PRIMCOORD
22 1
Ti      4.44640798     6.91312302     2.45696500     0.89375641     0.21650034    -0.57561339
Ti      4.38766698     2.28551501     2.24000201    -0.21533383    -0.02671763    -0.43103275
Ti      1.46773602     7.09566101     2.36447201    -0.23186423     0.44258523     0.66970346
Ti      1.57483203     2.43279297     2.30210498    -0.17424964    -0.65753751    -0.72799527
Ti      2.87947001     4.66980502     4.57809199     0.60029856    -0.03043210     0.18097976
Ti      3.02567502     9.15403198     0.14123900    -0.21856108     1.49354641    -0.35415365
Ti      5.71761498     4.61825999     4.56382500     0.31509652     0.09007143     0.39792053
Ti      0.04456001     9.26455398     4.57230798     0.26502993     0.16405958     1.50827678
O       4.43137400     5.59741300     1.06101102     0.62803306    -1.39009161    -1.29644351
O       4.51733599     0.97237701     0.69506802     0.06466173     0.08563705     0.71482711
O       1.45719301     0.80628198     1.00813701     0.02958004    -0.04909395    -0.75233643
O       4.51281703     8.16611902     3.94476901    -0.06771851     1.44702100     0.16982837
O       4.36926801     3.96226202     3.38750202     0.69242353    -1.05493276     0.92043856
O       1.57096300     8.41074099     3.77044199    -0.20549961    -0.10229421     0.01146404
O       1.54748600     3.90778301     3.59271998    -1.24247295    -0.67908670    -0.00750608
O       3.04031597     6.13829401     3.31436200    -1.57287860    -0.33181744     0.42583012
O       3.00917500     1.27519202     3.19762100     0.52134124     1.53539036    -0.75615272
O       0.09057303     6.24968000     3.49794698     0.50475402    -1.41891754    -0.62096510
O       3.10089799     8.04916301     1.63558898    -0.63947679    -0.82909057    -0.21760540
O       2.89825702     3.14229198     1.13884199     0.69697927     0.06989881     1.09419481
O       0.06560798     7.95342098     1.54909099     0.11478232    -0.65702817    -0.32024464
O       0.07154598     2.92761202     1.31507299    -0.75868115     1.68232973    -0.03341458
