# total energy = -19959.37475643 eV

CRYSTAL
PRIMVEC
        7.60600008     0.00000000     0.00000000
        0.00000000     7.60600008     0.00000000
       -1.89786986    -1.89786986     4.85670466
PRIMCOORD
24 1
Ti      3.82725298     6.65988201     1.16704301    -1.92586780     1.22710186    -0.39416003
Ti      3.92006098     2.93286802     1.18219002     0.73648146    -1.50929571    -0.33956315
Ti     -0.15106698     6.74696797     1.25701500     1.28356125     0.14063142     1.02411011
Ti      0.02828098     2.90771802     1.29610998    -0.83610352    -1.09781646     1.18662600
Ti      5.66153722     2.86414620     3.79993282     1.43970723    -3.06859579    -1.59292395
Ti      5.53988821    -1.07512476     3.59719084     0.06537058     2.80188925     0.90387217
Ti      2.09223725     2.80446623     3.63276584    -1.23280251     0.19323416    -0.63760271
Ti      1.85123824    -0.94839676     3.57657780    -0.18707302    -0.45473936     0.34364169
O       3.77699199     4.79548002     0.77500998     0.46905089    -1.30733702    -0.45726932
O       4.08589301     0.89064601     0.71129000    -1.28333397     1.13091506     0.04948887
O      -0.26861598     4.85527202     0.96295199     1.21762631    -1.35412829    -1.39960032
O       7.28827301     1.02914799     0.79811100     0.95069197    -0.32205676    -0.71822559
O       5.58018225     4.65668122     4.05529180     0.33518225     2.26377233     0.46221124
O       5.72174325     0.88508620     3.72846982    -0.06261744     0.44569036     2.60671648
O       2.01560625     4.73511523     3.97765579    -0.38338505    -0.87695425     0.20446294
O       2.09487123     0.91316821     3.94635580    -0.51943785     0.67318756     1.50920958
O       3.94143323     2.56773725     3.15242281    -1.03223325     1.01626490     0.30950386
O       3.69744723    -0.96988876     3.17721683     1.57621024    -0.36970317    -0.14286366
O       0.06101821     2.56703021     3.20861784     0.60123290     1.33069833    -0.47396247
O      -0.03661277    -0.85729080     3.17914880    -0.49266623    -0.63725793     0.27410001
O       5.57180199     6.76515902     1.71017101     1.58302829    -1.11282374    -0.59679080
O       5.78676501     3.13837601     1.73802299    -0.64493961    -0.49147169    -0.41379735
O       1.85863100     6.49905902     1.64372598    -0.44814859     0.92397820    -1.13234151
O       2.07416701     2.80451999     1.65885802    -1.20953505     0.45481726    -0.57484180
