# total energy = -4987.00739107 eV

CRYSTAL
PRIMVEC
        3.73818419     0.00000000     0.00000000
        0.00000000     3.90478279     0.00000000
        0.00000000    -0.00006824     5.08435214
PRIMCOORD
6 1
Ti      1.86909193     1.95235722     2.54217601     0.00000000     0.00000000     0.00000000
Ti      0.00000000     0.00000000     0.00000000     0.00000000     0.00000000     0.00000000
O       1.86909193     0.76097134     0.99086532     0.00000000     0.22661737     0.62493308
O       1.86909193     3.14374309     4.09348665     0.00000000    -0.22661737    -0.62493308
O       0.00000000     1.19135857     3.53304245    -0.00000000    -0.22695907     0.62651302
O       0.00000000     2.71335586     1.55130958    -0.00000000     0.22695907    -0.62651302
