# total energy = -19072.13823091 eV

CRYSTAL
PRIMVEC
        5.93400000     0.00000000     0.00000000
        0.00000000     9.29699974     0.00000000
        0.00000000     0.00000000     4.64899994
PRIMCOORD
22 1
Ti      4.36479498     6.82979199     2.42855400     1.22634956     0.84312597    -0.92845166
Ti      4.31113699     2.38465901     2.10784697     0.68696611     1.13631206    -0.94406701
Ti      1.50910101     7.03373997     2.71765300    -0.23857275     0.25244566    -0.09519822
Ti      1.59169002     2.36861600     2.16763802    -0.94302597     1.13964756     0.03871594
Ti      3.07778500     4.61314797     4.39447198    -0.23439136    -1.38750019     0.26911695
Ti      2.97592600     0.19715102     0.27747801    -0.16979134    -1.17942665    -0.86926588
Ti      5.91002102     4.62449401     4.57184902    -0.24384017    -0.87147805    -0.55791211
Ti      0.01572101     8.81608801     0.13067498    -1.53819132     0.08388819     0.64044661
O       4.32292299     5.57491000     0.66449099     0.01923803    -0.22453427     3.39931820
O       4.57980399     0.76078702     0.99293703     0.57240722     0.76129056    -0.00920918
O       1.32381399     1.00609200     0.73787999    -0.15885618    -0.91693903     0.29599219
O       4.43765100     8.26218098     3.76928600     0.20447940     2.00780323     1.06978063
O       4.44100101     4.33541501     3.12372701     0.16283265    -2.53530612     0.19981901
O       1.57033201     8.40327298     3.91138703     0.87914123     0.98982778    -0.09259420
O       1.39141803     3.90609599     3.30103399     0.03928544    -0.09481846     0.94068446
O       3.02881298     6.28133999     3.53117301    -1.86621715    -0.22508088    -0.77478654
O       3.00312101     1.44086699     3.06683998    -0.21470828    -0.37764994     1.35976312
O       0.08047198     6.36612398     3.87100599     1.17842443     0.25300796    -1.78848908
O       2.97342099     8.00729599     1.64653999    -0.18114508    -0.80808234    -0.78100758
O       2.84687798     2.96535400     0.92824998     1.32107777     1.35035956    -0.41904832
O       0.15095998     7.87689100     1.67848298    -0.73386073    -0.71985387    -0.49067851
O       5.83128501     3.17698298     1.20850802     0.23239824     0.52296206    -0.46292858
