# total energy = -39028.07514758 eV

CRYSTAL
PRIMVEC
        7.60600008     0.00000000     0.00000000
        0.00000000     7.60600008     0.00000000
       -3.79573973    -3.79573973     9.71340985
PRIMCOORD
46 1
Ti      1.98575647     4.36696244     6.07536362     0.52455795     0.41257865     0.38056609
Ti      3.88885402    -0.37434898     1.33936402    -1.33363145    -0.61855494     0.47225552
Ti      1.80686646     0.35753845     6.26757064     1.43093900     0.62161507    -1.05804688
Ti      3.62214700     3.21845302     1.31592401     1.06540667    -0.31321370    -0.08008372
Ti     -1.73164756     4.72097546     6.02679563    -1.13088112    -1.38208750    -2.25852959
Ti     -0.00212698     7.05640897     1.07589598     1.16331225     0.27817701    -0.26192403
Ti     -1.95157654     0.70084944     6.16518564    -0.64214585     2.50358075    -2.88114533
Ti     -0.08448399     3.31628202     1.28602698    -1.87934213    -0.74582357    -0.27956772
Ti      3.89182646     1.23610847     8.50338765     1.16072341    -0.49915132    -0.61749950
Ti      5.47340301     2.64625398     3.56264900     4.51338430     1.69491066     2.13261105
Ti      3.84494745    -2.53368855     8.33123163     0.53750371    -0.77372365     1.55253422
Ti      5.80033602    -1.02736498     3.52370198    -1.26999919    -0.61809934     1.30306153
Ti      0.05575443     1.39333947     8.37351263    -0.05569629    -1.01870050     0.58685734
Ti      1.99647199     2.06853498     3.35270201    -3.36736298     2.66448122    -0.48322848
Ti      0.07383044    -2.51361353     8.45518061     0.37228328    -1.00868965     1.14210682
Ti      1.80474298     6.16635999     3.58248098    -1.55667730     0.89388600     1.04672194
O       1.77182948    -1.47516154     5.76070165     0.31493146     0.31193818    -0.38428699
O       3.79963802     1.37859701     1.00152801     0.56476205    -0.69770150    -1.45313868
O      -1.77701954     2.54928346     5.75048361    -0.52932349     0.78456162    -1.21572910
O       0.48789201     5.06878297     1.15544598    -1.49325639    -1.11965774    -1.96473801
O       5.39779544    -0.99652956     5.45674864     1.48783393    -1.55170376     0.49451485
O       7.31504102     1.23770299     0.53746401    -0.19573353    -1.37661491     1.02738569
O      -3.30808257     3.06429146     8.97244264    -0.96444147    -0.66386242    -0.25031293
O       5.56951801     4.53387902     4.10371502     0.18480094     0.60700143     0.27542464
O       3.96393845    -0.71976054     8.90582261    -0.83728905     1.54039681    -0.74914518
O       5.81600099     0.86875500     3.89515398    -0.66009319    -2.29336059    -0.30634037
O       0.03823745     3.04968347     9.29058162    -0.40341961    -0.46441494    -1.13324576
O       2.08843300     3.75336999     4.33209802    -1.14698060     0.02359502     0.27442191
O      -0.17698656    -0.29765855     9.27851961     0.69401479     0.27333871    -2.16298556
O       1.54514502     0.57176898     4.15260798     0.34700135    -1.27216046     1.72280174
O       2.09834845     1.47652343     8.16396262    -1.85935282    -0.98176814    -0.68758806
O       3.74846298     2.46918100     3.15088100    -1.54046752    -0.66086992     0.02531355
O       2.06644044    -3.15993353     8.15196363    -0.49728033     1.25274631    -1.38939535
O       3.43120497    -1.09657602     3.16577702     4.43883616    -0.30613674    -0.07766329
O      -1.80226055     0.97433047     7.90699864    -1.78841708     1.08193141     3.04447652
O      -0.32899701     2.63644599     3.01924101     1.42195324     0.41208525     0.09997301
O      -1.65023454    -2.73187655     8.18781560    -1.38193864     1.24459951    -0.27312530
O      -0.11710698     6.22765702     3.39365900     0.98668974     0.26539219    -0.09353728
O       4.10149342     4.59890348     6.33133263    -3.28229517    -0.47331019     2.07722407
O       5.73134999     6.57206098     1.54112899    -1.09698677     0.77215296     0.52758002
O       3.73720246     0.78403446     6.35922361    -1.15937461     0.21290516     1.09182785
O       5.47276901     3.40099001     1.51666100    -0.74574849     0.35959411     0.35904338
O       0.01052444     4.35077544     6.56007860     2.47836388     0.16031477     0.31060198
O       1.76270498    -0.57581899     1.72415801     0.10129405     1.03784829    -0.15571326
O      -0.02618253     0.65101745     6.63929861     2.69837660    -0.14388619    -1.23394820
O       1.55832201     2.68400903     1.49705398     4.33116629    -0.42613917     1.50361383
