# total energy = -4990.20055371 eV

CRYSTAL
PRIMVEC
        2.90838487     0.00000000     0.00000000
        0.22770809     4.55131035     0.00000000
       -0.00000126    -0.00005914     4.55842881
PRIMCOORD
6 1
Ti      1.56804574     2.27562545     2.27921430     0.00000000     0.00000000     0.00000000
Ti      0.00000000     0.00000000     0.00000000     0.00000000     0.00000000     0.00000000
O       1.49856906     0.88697171     0.88837057    -0.37577612     0.26935684     0.26787305
O       1.63752237     3.66427919     3.67005798     0.37577612    -0.26935684    -0.26787305
O       0.06947606     1.38862976     3.16758580     0.37555964    -0.26922982     0.26773421
O       0.15823067     3.16262134     1.39084275    -0.37555964     0.26922982    -0.26773421
