# total energy = -19948.84102636 eV

CRYSTAL
PRIMVEC
        5.65939748     0.00000000     0.00000000
        1.48269002     5.83797028     0.00000000
        0.00000000     0.00000000    10.21038998
PRIMCOORD
24 1
Ti      2.92990018     3.45957596     3.78798205     0.38389798    -2.04989529     0.92932224
Ti      4.21218748     2.37839471     6.42240851    -0.38389798     2.04989529    -0.92932224
Ti      5.48491468     2.37839673     1.31717246    -0.93880936    -0.52547275     0.23678866
Ti      1.65717301     3.45957417     8.89321821     0.93880936     0.52547275    -0.23678866
Ti      2.18855529     0.54059086     1.31721340     0.38389798    -2.04989529    -0.92932224
Ti      4.95353240     5.29738004     8.89317727    -0.38389798     2.04989529     0.92932224
Ti      0.91582801     0.54058862     6.42236757     0.93880936     0.52547275     0.23678866
Ti      6.22625967     5.29738222     3.78802299    -0.93880936    -0.52547275    -0.23678866
O       2.31331540     2.05564871     5.21028410     1.40041716     1.73951160    -0.68235792
O       4.82877220     3.78232197     5.00010646    -1.40041716    -1.73951160     0.68235792
O       1.56058318     2.05567227     0.10512172    -0.37949034    -0.14594255     0.85594679
O       5.58150455     3.78229851    10.10526855     0.37949034     0.14594255    -0.85594679
O       4.08742729     0.86333670     0.10508859    -1.40041716    -1.73951160    -0.68235792
O       3.05466037     4.97463397    10.10530168     1.40041716     1.73951160     0.68235792
O       4.84015964     0.86331318     5.21031723     0.37949034     0.14594255     0.85594679
O       2.30192797     4.97465755     5.00007333    -0.37949034    -0.14594255    -0.85594679
O       1.10747512     3.55098460     2.75808122     0.29745309     1.14319928     1.13150513
O       6.03461249     2.28698608     7.45230934    -0.29745309    -1.14319928    -1.13150513
O       3.61614914     2.28693164     2.34714655     0.92082834     1.03732481     0.24176272
O       3.52593853     3.55103909     7.86324383    -0.92082834    -1.03732481    -0.24176272
O       0.36613021     0.63199933     2.34711394     0.29745309     1.14319928    -1.13150513
O       6.77595746     5.20597140     7.86327644    -0.29745309    -1.14319928     1.13150513
O       2.78459361     0.63205376     7.45234189    -0.92082834    -1.03732481     0.24176272
O       4.35749405     5.20591691     2.75804861     0.92082834     1.03732481    -0.24176272
