# total energy = -19959.01802115 eV

CRYSTAL
PRIMVEC
        7.60600008     0.00000000     0.00000000
        0.00000000     7.60600008     0.00000000
       -1.89786986    -1.89786986     4.85670466
PRIMCOORD
24 1
Ti      3.81888600     6.48986001     1.17332699    -1.44785763     0.16162012     0.03636673
Ti      3.72230501     2.68536700     1.35308601     1.45755404     0.22337110    -0.58869774
Ti      0.01502101     6.88908397     1.21693299     1.49851944    -1.77019001    -1.18060730
Ti      0.03816998     2.90485798     1.18147500    -2.30651256     1.96439399    -0.03175854
Ti      5.65805222     2.85637423     3.62058079    -0.72360486     3.81739670     0.17727197
Ti      5.86989224    -0.80984879     3.52393583    -0.63849514    -1.31932917    -0.09305289
Ti      1.71760225     2.52941423     3.56679183    -0.06301468     1.76206790     2.14064884
Ti      1.99786023    -1.01168175     3.75042083     0.36297691    -1.23331725    -1.15883056
O       3.87794202     4.66012902     0.74649098    -0.40577705    -0.30948380     0.31073773
O       3.81809498     0.81585299     0.83878600     0.35597296     2.32880095     0.07344436
O       0.04345302     4.95128298     1.03209699    -0.54324653    -0.66733033    -1.17809533
O      -0.17228000     1.16832600     0.50477398     0.04726126    -0.40304551     2.07252435
O       5.91868921     4.94221224     4.02322583    -0.37435996    -0.57341278    -0.03617389
O       5.91888522     1.22925224     4.02722779    -1.33070039    -4.07577569     1.66645445
O       1.70128422     4.77746624     3.99520082     0.58778345    -0.85126378     0.03967728
O       1.69453324     0.84750621     4.25401480     0.64091378     0.22550023    -0.55333092
O       3.64998124     2.66589920     3.29923981     0.77377096     0.27073906    -0.82166831
O       3.82247620    -0.85808679     3.22926982    -0.28365218    -0.29045532    -0.15700190
O      -0.14382778     2.59248623     3.27185383     3.60257066     1.45489989    -1.15358243
O       0.13954124    -0.62143179     3.20885983    -1.52168560    -0.47062724    -1.12810947
O       5.65009900     6.84544601     1.59607902     1.94558251    -0.18157472     0.08439186
O       5.75006302     2.86686501     1.69391098    -1.93284629     0.14871061    -0.21045181
O       1.97755798     6.76778200     1.47338801    -1.01752808    -0.04476575     0.95944015
O       1.79257597     2.69869999     1.59472602     1.31637574    -0.16692945     0.73040337
