# total energy = -19961.06985130 eV

CRYSTAL
PRIMVEC
        7.60600008     0.00000000     0.00000000
        0.00000000     7.60600008     0.00000000
       -1.89786986    -1.89786986     4.85670466
PRIMCOORD
24 1
Ti      3.80407602     6.72310499     1.31844702    -0.82578285    -1.08734590    -1.86047665
Ti      3.77696399     2.86513402     1.22815197     0.19417364     0.93122537    -0.70674458
Ti     -0.04434400     6.57706302     1.18825402     0.76094834    -0.59190853    -0.02546447
Ti      0.05839799     2.73967302     1.22403699    -0.07113808     1.02353084     0.24344731
Ti      5.69758821     2.76576522     3.58386182     0.50411433     0.82955980     0.39654267
Ti      5.71357222    -0.98178276     3.64545381     0.45114084    -0.72547585    -0.38920269
Ti      1.91044322     2.88547924     3.59769483    -0.20881299     1.45762320     1.85278828
Ti      1.87878223    -0.84709980     3.66376282    -0.63863835    -1.91790020    -0.30233382
O       3.79349602     4.81405102     0.69794198     0.38218511    -1.04456761     0.73859234
O       3.72187802     0.92860098     0.85007298     0.43786623     1.78015818     0.41030554
O       0.03213201     4.52881300     0.66182601    -0.41746349     1.80164439     0.53830873
O       0.03133301     0.84239901     0.78029498    -0.19821362     0.89147919     0.07982481
O       5.67331422     4.70082524     4.04355381     0.06210013    -0.28336318     0.48463307
O       5.89134424     0.87900823     3.90494382    -0.67303870    -0.11438174     0.38096332
O       1.81972520     4.82836722     4.18639483     0.50855411     0.01654634    -0.77336446
O       1.69098521     0.97176724     4.09445579     0.68501901     0.44016325    -0.38921014
O       3.81227123     3.04796020     3.11272780     0.08395066    -0.80525515     1.17198716
O       3.72859920    -0.89826579     3.28019880     1.38266806     0.21251153     0.37114865
O       0.12685823     3.08106125     3.17941180    -1.86400626    -0.95978931    -0.50293933
O      -0.02375175    -0.97911576     3.19754380    -0.23108698    -0.28301197    -0.21289642
O       5.70889297     6.48794698     1.62595801     0.02131754     0.32379303     0.26558708
O       5.74365299     2.79998298     1.69588799     0.25130897    -0.38127237    -1.35180812
O       1.89607098     6.70166802     1.67867602    -0.73592405    -0.44295136    -0.03689920
O       1.91885502     3.03445200     1.61043301     0.13875786    -1.07101167    -0.38278855
