# total energy = -19887.77820153 eV

CRYSTAL
PRIMVEC
        8.97863673     0.00000000     0.00000000
        0.00003006     4.60102961     0.00000000
        0.00000000     0.00000000    13.56529333
PRIMCOORD
24 1
Ti      3.25434192     2.72656598     5.03262708     0.37624843    -0.50646869     2.77482349
Ti      5.72432506     1.87446384     8.53266639    -0.37624843     0.50646869    -2.77482349
Ti      7.74350660     1.87446548     1.74996546     0.37594839     0.50657076    -2.77615250
Ti      1.23516046     2.72656455    11.81532821    -0.37594839    -0.50657076     2.77615250
Ti      3.25432696     0.42605124     1.75001986     0.37624843    -0.50646869    -2.77482349
Ti      5.72434009     4.17497872    11.81527381    -0.37624843     0.50646869     2.77482349
Ti      1.23514543     0.42604947     8.53261199    -0.37594839    -0.50657076    -2.77615250
Ti      7.74352156     4.17498049     5.03268147     0.37594839     0.50657076     2.77615250
O       2.84180590     1.62010081     6.92226537     0.75408478     1.32584486    -2.44542777
O       6.13686115     2.98092901     6.64302810    -0.75408478    -1.32584486     2.44542777
O       1.64758636     1.62011932     0.13966229    -0.75430076     1.32623489    -2.44636520
O       7.33108076     2.98091049    13.42563077     0.75430076    -1.32623489     2.44636520
O       6.13684612     0.68041420     0.13961829    -0.75408478    -1.32584486    -2.44542777
O       2.84182086     3.92061562    13.42567484     0.75408478     1.32584486     2.44542777
O       7.33106580     0.68039569     6.92230936     0.75430076    -1.32623489    -2.44636520
O       1.64760111     3.92063420     6.64298411    -0.75430076     1.32623489     2.44636520
O       0.32623305     2.79860707     3.66432414    -2.30617343     0.72882008     0.05577368
O       8.65243394     1.80242281     9.90096933     2.30617343    -0.72882008    -0.05577368
O       4.81556265     1.80237986     3.11836570    -2.30617600    -0.72882780    -0.05598039
O       4.16310434     2.79865002    10.44692756     2.30617600     0.72882780     0.05598039
O       0.32621809     0.49809220     3.11832239    -2.30617343     0.72882008    -0.05577368
O       8.65244896     4.10293762    10.44697088     2.30617343    -0.72882008     0.05577368
O       4.16308938     0.49813515     9.90101257     2.30617600     0.72882780    -0.05598039
O       4.81557768     4.10289467     3.66428083    -2.30617600    -0.72882780     0.05598039
