# total energy = -19946.04313496 eV

CRYSTAL
PRIMVEC
        5.26632798     0.00000000     0.00000000
        0.00002449     4.58588106     0.00000000
        0.00000000     0.00000000     8.65525190
PRIMCOORD
24 1
Ti      1.90880510     2.71758877     3.21103683    -0.64884743     1.90889722    -3.28121736
Ti      3.35754742     1.86829209     5.44421541     0.64884743    -1.90889722     3.28121736
Ti      4.54187784     1.86829357     1.11655471    -0.64426264    -1.90906152     3.27199250
Ti      0.72447467     2.71758744     7.53869764     0.64426264     1.90906152    -3.27199250
Ti      1.90879305     0.42464834     1.11658941    -0.64906546     1.90911474     3.26986439
Ti      3.35755947     4.16123267     7.53866293     0.64906546    -1.90911474    -3.26986439
Ti      0.72446263     0.42464667     5.44418071     0.64377285     1.90917465     3.28327733
Ti      4.54188989     4.16123429     3.21107154    -0.64377285    -1.90917465    -3.28327733
O       1.66683469     1.61476661     4.41670893     0.03326289    -2.22555029     1.94804974
O       3.59951782     2.97111425     4.23854332    -0.03326289     2.22555029    -1.94804974
O       0.96637732     1.61478514     0.08911068    -0.03451244    -2.22633294     1.94916843
O       4.29997525     2.97109577     8.56614132     0.03451244     2.22633294    -1.94916843
O       3.59950577     0.67817367     0.08908258    -0.03416843     2.22546545     1.94837807
O       1.66684674     3.90770719     8.56616941     0.03416843    -2.22546545    -1.94837807
O       4.29996315     0.67815519     4.41673702     0.03327112     2.22644967     1.94870563
O       0.96638927     3.90772572     4.23851522    -0.03327112    -2.22644967    -1.94870563
O       0.19135268     2.78939284     2.33799955     1.61433174    -0.55950157     0.62437232
O       5.07499984     1.79648802     6.31725269    -1.61433174     0.55950157    -0.62437232
O       2.82452194     1.79644540     1.98965410     1.61446055     0.55986769    -0.62224756
O       2.44183058     2.78943546     6.66559800    -1.61446055    -0.55986769     0.62224756
O       0.19134058     0.49645226     1.98962645     1.61370310    -0.55988312    -0.62258875
O       5.07501193     4.08942860     6.66562565    -1.61370310     0.55988312     0.62258875
O       2.44181848     0.49649488     6.31728030    -1.61489481    -0.55937455    -0.62424505
O       2.82453403     4.08938598     2.33797190     1.61489481     0.55937455     0.62424505
