# total energy = -19075.99445812 eV

CRYSTAL
PRIMVEC
        7.60600008     0.00000000     0.00000000
        0.00000000     7.60600008     0.00000000
       -1.89786986    -1.89786986     4.85670466
PRIMCOORD
22 1
Ti      3.77523501     6.52163001     1.16875998    -0.45611516    -0.86325772     0.36515695
Ti      3.77288298     2.76053599     1.20863798     0.12080821     1.38675483     0.14122972
Ti     -0.00612099     6.65348199     1.21609599     0.15994556    -0.12122267    -1.41916540
Ti     -0.03694901     2.93680901     1.17395899    -0.31483710     0.03235220     0.63271787
Ti      5.70949322     2.89556224     3.54494580     0.25210241     1.07169533     0.77693470
Ti      6.00357824    -0.82879275     3.69904079    -0.93607087    -1.64803557    -0.26151831
Ti      1.90407023     2.71475121     3.54241782    -0.49237878     1.24184072     0.88785804
Ti      1.93882824    -1.01851777     3.78564483    -1.17082194    -0.57530846    -1.27154185
O       3.45894201     4.69831101     0.71805802     1.01934045    -0.26990603    -0.11476689
O       3.73895700     0.90676898     1.05866698     0.38114073    -0.24633620    -1.23448864
O       0.11151802     4.76548202     0.70152398    -0.56991891     0.47156158    -0.01778356
O      -0.26707100     1.09062600     0.73452401     0.63455698    -1.31293843     1.01397096
O       5.92249421     4.82991723     4.07492783    -0.59368799     0.46689142     0.18938573
O       5.57341624     0.94647320     4.01210983     0.52633355     1.49703128    -0.87965031
O       1.80033821     4.69451025     4.12393879     0.60064412     0.99867674    -0.31364411
O       1.94315622     0.86316721     3.90441681     0.14543348     0.12942938     0.99470285
O       3.79734324     2.99888822     3.17245683    -0.36936636    -0.44486040     0.65920796
O      -0.02224677     3.05447925     3.14575084     0.16041736    -1.25647364    -0.31988160
O       5.63214402     6.51390302     1.80856401     0.42182974     0.21501012     0.12152272
O       5.61491999     3.19270600     1.61692501     0.73321822    -0.79317174    -0.51338341
O       1.75417099     6.53402297     1.79490102     0.88690725     0.60737270     0.99168206
O       1.91709101     2.86346102     1.63444501    -1.13948095    -0.58710494    -0.42854546
