# total energy = -19890.20127852 eV

CRYSTAL
PRIMVEC
        7.91890133     0.00000000     0.00000000
        0.00002462     2.80936858     0.00000000
        0.00000000     0.00000000    12.59830411
PRIMCOORD
24 1
Ti      2.87023526     1.66482912     4.67388108    -0.32036394     0.44584565     1.16395529
Ti      5.04869037     1.14453918     7.92442341     0.32036394    -0.44584565    -1.16395529
Ti      6.82955085     1.14454009     1.62522083    -0.32133865    -0.44595621    -1.16223419
Ti      1.08937483     1.66482832    10.97308376     0.32133865     0.44595621     1.16223419
Ti      2.87022327     0.26014489     1.62527135    -0.32036394     0.44584565    -1.16395529
Ti      5.04870241     2.54922353    10.97303324     0.32036394    -0.44584565     1.16395529
Ti      1.08936279     0.26014393     7.92437289     0.32133865     0.44595621    -1.16223419
Ti      6.82956289     2.54922449     4.67393160    -0.32133865    -0.44595621     1.16223419
O       2.50639082     0.98922635     6.42881830     5.35853964    -0.25170441     0.69687437
O       5.41253487     1.82014201     6.16948618    -5.35853964     0.25170441    -0.69687437
O       1.45312324     0.98923775     0.12970662    -5.35605879    -0.25159102     0.69659361
O       6.46580249     1.82013061    12.46859748     5.35605879     0.25159102    -0.69659361
O       5.41252283     0.41545767     0.12966571    -5.35853964     0.25170441     0.69687437
O       2.50640286     2.39391064    12.46863840     5.35853964    -0.25170441    -0.69687437
O       6.46579045     0.41544632     6.42885916     5.35605879     0.25159102     0.69659361
O       1.45313512     2.39392204     6.16944532    -5.35605879    -0.25159102    -0.69659361
O       0.28772678     1.70881722     3.40311630     0.05361369     0.09293333     3.52043983
O       7.63119890     1.10055109     9.19518813    -0.05361369    -0.09293333    -3.52043983
O       4.24718792     1.10052505     2.89607597     0.05586032    -0.09269782    -3.52215167
O       3.67173776     1.70884331     9.70222830    -0.05586032     0.09269782     3.52215167
O       0.28771474     0.30413293     2.89603575     0.05361369     0.09293333    -3.52043983
O       7.63121094     2.50523543     9.70226852    -0.05361369    -0.09293333     3.52043983
O       3.67172578     0.30415897     9.19522829    -0.05586032     0.09269782    -3.52215167
O       4.24719991     2.50520933     3.40307609     0.05586032    -0.09269782     3.52215167
