# total energy = -19077.21444325 eV

CRYSTAL
PRIMVEC
        5.17575250     0.00001323     0.00000000
        0.00001429     5.50856584     0.00000000
        0.00000000     0.00000000     9.26345890
PRIMCOORD
22 1
Ti      1.90754788     3.42298281     3.30352564     0.02487415    -0.02367267     0.01971857
Ti      3.41472369     2.26811137     5.92552017     0.02258406     0.00895413    -0.00863634
Ti      4.46745219     2.24805272     1.13127309    -0.00230217    -0.00535098     0.00754516
Ti      0.74124736     3.28077172     8.08818862     0.01946352     0.00291795     0.02480241
Ti      1.80820779     0.62812588     1.23983392    -0.00573690    -0.01716032    -0.00697181
Ti      3.19261554     4.98407091     8.13966655     0.00386874     0.00348513     0.01371427
Ti      0.79969538     0.56456485     5.78204537     0.00593822     0.03539459    -0.00076465
Ti      4.46282456     4.93891324     3.50523261     0.00222812    -0.00309021    -0.04134901
O       3.46938869     3.49074587     4.52498648    -0.03855576     0.02080769     0.01097424
O       0.95312669     1.95612734     0.13675152    -0.03060308     0.00031059     0.02819164
O       4.14585094     3.61826451     9.14291120    -0.02416349    -0.01963578    -0.04466651
O       3.56425929     0.82723375     0.07517012    -0.03063085     0.00624701    -0.00024708
O       1.55099538     4.74121501     9.10593860     0.00897650     0.04113021     0.00971440
O       4.29069586     0.82225831     4.72323597     0.00562995     0.03016548    -0.02466537
O       0.94077858     4.59231736     4.59475020    -0.02201996     0.01272568    -0.02021633
O       0.16764729     3.30833114     2.50595303     0.01589817    -0.02388196    -0.01406394
O       5.09727786     2.02571920     6.80470536     0.00516123    -0.04045555     0.00807918
O       2.73349689     2.08871119     2.16893241     0.02374517     0.00660825     0.01409505
O       2.34576980     3.38796922     7.05982218    -0.01119484    -0.00723354     0.00575567
O       0.19670884     0.52484664     2.18617342    -0.00291435     0.01831217    -0.00455445
O       2.45885426     0.65774494     6.68780727     0.00625935    -0.02605557    -0.00473649
O       2.77415532     4.87396857     2.46799245     0.02349398    -0.02052230     0.02828189
