# total energy = -19517.80639025 eV

CRYSTAL
PRIMVEC
        5.17600016     0.00000000     0.00000000
        0.00000000     5.50899976     0.00000000
        0.00000000     0.00000000     9.26300011
PRIMCOORD
23 1
Ti      1.87748299     3.34454199     3.42554802    -0.70806613    -1.41146520     1.57338742
Ti      3.31696698     2.26774100     5.83540401     0.51691817     0.58298937    -2.60148788
Ti      4.30859303     2.09501099     1.54484101     0.86229844    -0.93761019    -0.50636353
Ti      0.93207302     3.28724601     7.83169799    -0.68300892     0.96785538     0.18252448
Ti      1.95648900     0.25037201     1.31644001    -0.60066623     0.28499532    -0.24973546
Ti      3.30342999     5.25903701     7.90613598     0.38542085    -0.76798931     0.75045490
Ti      0.70639802     0.59550798     5.88940999    -1.00989756     0.10689648    -2.84940917
Ti      4.47347100     4.86285502     3.38094901     0.78082915     0.54481645     2.36788327
O       1.63469102     2.06394500     4.75737698    -0.31276839    -1.41113070     1.04378831
O       3.44100899     3.58459499     4.49087702     1.41295772     0.83144082    -0.10016559
O       0.21297702     2.58686902     0.09019001    -0.03452659    -0.02031764    -0.04150353
O       3.42736902     0.84157402     0.23795498     0.17592600     0.12365828    -1.16886970
O       1.81762802     4.62716498     9.03926000    -0.13726816     0.25963009    -0.11050194
O       4.26807101     0.75862501     4.78474899    -0.14568159     0.01018517    -0.33329943
O       0.98120802     4.72114702     4.38168098     0.05337046     0.91189144     0.94065181
O       0.12057600     3.20479400     2.70254298    -0.54916907     0.11632112    -0.98684375
O       5.00538701     2.17006700     6.71597798     0.23870311    -0.38407179     0.58514884
O       2.57222599     1.76881401     2.31978500     0.34670593     0.78530878    -0.19963235
O       2.61669202     3.66174602     6.95428502    -0.07228556    -0.56695443     0.78544917
O       0.14169398     0.57529801     2.11536198     0.10688594     0.01228628    -0.78277033
O       5.07324198     4.78494600     7.10604702    -0.13240749     0.28260702     0.99645660
O       2.44800301     0.88844299     6.79423499    -0.97468989    -0.39137990     1.08052399
O       2.90523401     4.47713402     2.22011500     0.48041955     0.07003713    -0.37568613
