# total energy = -4987.92391198 eV

CRYSTAL
PRIMVEC
        2.75913579     0.00000000     0.00000000
        0.00000000     4.32315213     0.00000000
        0.00000000    -0.00005610     4.32315213
PRIMCOORD
6 1
Ti      1.37956784     2.16154796     2.16157601     0.00000000     0.00000000     0.00000000
Ti      0.00000000     0.00000000     0.00000000     0.00000000     0.00000000     0.00000000
O       1.37956784     0.84250773     0.84251866     0.00000000     1.04990085     1.04990085
O       1.37956784     3.48058819     3.48063336     0.00000000    -1.04990085    -1.04990085
O       0.00000000     1.31901749     3.00409555     0.00000000    -1.05020270     1.05020270
O       0.00000000     3.00407844     1.31905647     0.00000000     1.05020270    -1.05020270
