# total energy = -4987.17374495 eV

CRYSTAL
PRIMVEC
        3.72038331     0.00000000     0.00000000
        0.00000000     3.88618858     0.00000000
        0.00000000    -0.00006792     5.06014094
PRIMCOORD
6 1
Ti      1.86019149     1.94306028     2.53007041     0.00000000     0.00000000     0.00000000
Ti      0.00000000     0.00000000     0.00000000     0.00000000     0.00000000     0.00000000
O       1.86019149     0.75734767     0.98614692     0.00000000     0.18457185     0.57182307
O       1.86019149     3.12877288     4.07399385     0.00000000    -0.18457185    -0.57182307
O       0.00000000     1.18568543     3.51621844     0.00000000    -0.18529562     0.57254581
O       0.00000000     2.70043512     1.54392239     0.00000000     0.18529562    -0.57254581
