# total energy = -39032.55564980 eV

CRYSTAL
PRIMVEC
        7.60600008     0.00000000     0.00000000
        0.00000000     7.60600008     0.00000000
       -3.79573973    -3.79573973     9.71340985
PRIMCOORD
46 1
Ti      1.69396644     4.56505645     6.18091464     0.67296362     1.45032641    -1.64655719
Ti      3.83357400     6.64698798     1.21070601     5.04306234     0.02410693    -2.37783525
Ti      1.81452948     0.69418144     6.06501360    -0.21426605    -1.09476636    -1.17397411
Ti      3.89680200     2.80875500     1.17869898     0.16632190    -1.81605080     1.61439165
Ti     -2.17278057     4.82350747     6.07648362     0.15704175    -2.08258251    -0.80612239
Ti      0.03463798     6.75333599     1.10690000    -0.18353698     1.08029490     1.17382807
Ti     -1.91993354     0.86929344     6.19660665     0.07630600     2.83281166     0.27948056
Ti      0.01463800     2.98037400     1.30286201     1.00724186    -1.37308247    -1.77943442
Ti      3.74674146     1.11530646     8.45731563     1.18894771    -2.86633937    -0.27066707
Ti      5.85305298     2.76913200     3.64701801     0.20796067     1.27622255     1.60408769
Ti      3.63095944    -2.78328855     8.49701164     1.00074880     2.57837417     0.61539428
Ti      5.62575500    -0.89374503     3.67855099     0.61014203    -1.07888234    -0.98786808
Ti      0.06209943     0.99696343     8.43565762    -0.97003567     1.67398958     1.44400226
Ti      2.14014499     2.87449902     3.48705498    -0.14206044    -2.03042740     0.67000376
Ti     -0.08918854    -2.80137456     8.48796764    -0.29486090    -1.67524402     1.20306975
Ti      1.93661501    -0.96751202     3.59614899    -0.35781825    -0.43082218     1.64851097
O       1.62014246    -1.19644357     5.62746360    -0.00278451     2.04824104    -1.48153961
O       3.82706300     0.85347199     0.90515202    -0.36476177     3.14171645    -1.62499128
O      -1.92779955     2.85392546     5.73888764    -0.75292110     0.52358350    -0.98606137
O       0.32407000     4.71468698     0.61214102    -0.77563655     1.33629485     1.86232270
O      -1.76456758    -0.92405857     5.72254464     0.24810101    -0.66447949    -0.20357822
O       0.33551399     1.05967803     0.72180401    -0.75348289    -1.94298878     0.11594780
O       3.54563347     2.87148547     8.95869662    -1.08340671     1.00989730    -1.32830643
O       5.73048002     4.79523702     4.08532399     0.58944156     0.13086714    -0.12506288
O       3.77927946    -0.93205656     8.88214865    -0.18365525    -0.23666319     0.18608135
O       5.76089099     1.00056998     4.18096399    -0.01691864    -1.67855123    -0.27390281
O       0.00104846     2.94570146     8.84626662     0.53225326    -0.68231575     0.43785723
O       1.81676498     4.53682601     3.80914501     0.19684707     2.70610456     1.86362625
O      -0.01221955    -0.73309957     9.08672561    -1.09852197    -1.26626338    -1.07003645
O       2.05927501     0.99681097     4.09324800    -0.03314256    -1.21385965     0.33983363
O       1.81677144     0.50520743     7.84869760     1.68861222     1.15814665     2.91262310
O       4.03645701     2.83969699     3.20498101    -1.17885689     0.48337092    -0.16468462
O       1.74139146    -2.61911454     8.11738163    -0.41697447    -0.79400297     0.23775720
O       3.82103901    -1.25709501     3.38521503     0.91810451     0.99635761    -0.14323030
O      -1.91611156     1.34918645     8.16005861    -0.38765102    -1.40615150    -0.44074252
O       0.12461500     2.78514797     3.20252298    -1.55112860     0.01448174     0.15993476
O      -2.16097753    -2.96307054     7.93166460     1.85481945     0.38351695     0.99493630
O       0.14299301    -0.89362803     2.92101497    -0.16570355    -0.28846246     2.20430166
O       3.53563445     4.99433345     6.48551965     1.72986585    -0.95897118    -0.45249710
O       5.71682502    -0.63945800     1.65572598     1.39426760    -1.15457101     0.70861326
O       3.88998747     0.66269047     6.61735262    -1.28737908     0.59357975    -1.40013023
O       5.79832202     2.60822598     1.57835402     0.09782434     1.01828347    -0.02072747
O      -0.04163154     4.49985446     6.47434062    -1.82768247     0.33628602     0.79356794
O       2.25289901     6.60373700     1.61701401    -6.89281389    -0.50734183     0.77465336
O       0.01003743     1.21718044     6.63855263     0.14529258    -0.20464138    -3.28255382
O       1.97303097     2.74701001     1.69281400     1.40983460     0.65060761    -1.80432014
