# total energy = -19945.88636303 eV

CRYSTAL
PRIMVEC
        4.94580858     0.00000000     0.00000000
        1.54442643     5.03216803     0.00000000
        0.00000000     0.00000000     8.95546688
PRIMCOORD
24 1
Ti      2.70784338     2.98205814     3.32241434     2.71073101    -2.22077395     0.99522221
Ti      3.78239155     2.05011001     5.63305259    -2.71073101     2.22077395    -0.99522221
Ti      4.89464167     2.05011174     1.15528334    -5.09517451     0.30682297     1.94280597
Ti      1.59559334     2.98205660     7.80018368     5.09517451    -0.30682297    -1.94280597
Ti      1.93563028     0.46597421     1.15531925     2.71104391    -2.22222843    -0.99515999
Ti      4.55460467     4.56619409     7.80014778    -2.71104391     2.22222843     0.99515999
Ti      0.82338013     0.46597233     5.63301668     5.09507398    -0.30787558     1.94281780
Ti      5.66685482     4.56619597     3.32245024    -5.09507398     0.30787558    -1.94281780
O       2.10919842     1.77191194     4.56990620    -0.95892208    -0.00441253    -0.95158517
O       4.38103652     3.26025625     4.38556073     0.95892208     0.00441253     0.95158517
O       1.45137859     1.77193225     0.09220157     1.29281748    -0.85198137    -0.37978216
O       5.03885640     3.26023599     8.86326511    -1.29281748     0.85198137     0.37978216
O       3.60882339     0.74417217     0.09217251     0.95878992     0.00398135    -0.95144222
O       2.88141154     4.28799603     8.86329416    -0.95878992    -0.00398135     0.95144222
O       4.26664328     0.74415191     4.56993526    -1.29271952     0.85209244    -0.37993463
O       2.22359162     4.28801634     4.38553167     1.29271952    -0.85209244     0.37993463
O       1.11910037     3.06084990     2.41909502    -0.34726721    -1.46772353    -1.72462285
O       5.37113456     1.97131830     6.53637190     0.34726721     1.46772353     1.72462285
O       3.25761108     1.97127138     2.05866692     1.56372110    -1.91312849    -2.31746341
O       3.23262385     3.06089682     6.89679986    -1.56372110     1.91312849     2.31746341
O       0.34688720     0.54476582     2.05863831    -0.34733123    -1.46759651     1.72472698
O       6.14334769     4.48740238     6.89682846     0.34733123     1.46759651    -1.72472698
O       2.46041073     0.54481274     6.53640046    -1.56396175     1.91328430    -2.31745312
O       4.02982421     4.48735546     2.41906642     1.56396175    -1.91328430     2.31745312
