# total energy = -19883.55000827 eV

CRYSTAL
PRIMVEC
        7.60835618     0.00000000     0.00000000
        0.00002365     2.69919726     0.00000000
        0.00000000     0.00000000    12.10425297
PRIMCOORD
24 1
Ti      2.75767701     1.59954171     4.49059162    -0.58644494     0.56305586     0.51486900
Ti      4.85070251     1.09965530     7.61366171     0.58644494    -0.56305586    -0.51486900
Ti      6.56172533     1.09965616     1.56148668    -0.58675398    -0.56331966    -0.51462937
Ti      1.04665425     1.59954094    10.54276675     0.58675398     0.56331966     0.51462937
Ti      2.75766550     0.24994313     1.56153522    -0.58644494     0.56305586    -0.51486900
Ti      4.85071408     2.44925398    10.54271821     0.58644494    -0.56305586     0.51486900
Ti      1.04664268     0.24994221     7.61361317     0.58675398     0.56331966    -0.51462937
Ti      6.56173689     2.44925490     4.49064016    -0.58675398    -0.56331966     0.51462937
O       2.40810098     0.95043316     6.17670778     7.12412841    -0.63196402     2.16043194
O       5.20027860     1.74876389     5.92754555    -7.12412841     0.63196402    -2.16043194
O       1.39613802     0.95044412     0.12462009    -7.12410656    -0.63162746     2.16030338
O       6.21224161     1.74875294    11.97963288     7.12410656     0.63162746    -2.16030338
O       5.20026703     0.39916521     0.12458078    -7.12412841     0.63196402     2.16043194
O       2.40811255     2.30003179    11.97967219     7.12412841    -0.63196402    -2.16043194
O       6.21223004     0.39915431     6.17674704     7.12410656     0.63162746     2.16030338
O       1.39614943     2.30004275     5.92750629    -7.12410656    -0.63162746    -2.16030338
O       0.27644338     1.64180478     3.26966076     0.93707592    -0.18569645     4.73943346
O       7.33193620     1.05739222     8.83459252    -0.93707592     0.18569645    -4.73943346
O       4.08063153     1.05736720     2.78250436     0.94279097     0.18599007    -4.73954761
O       3.52774805     1.64182985     9.32174876    -0.94279097    -0.18599007     4.73954761
O       0.27643181     0.29220615     2.78246572     0.93707592    -0.18569645    -4.73943346
O       7.33194777     2.40699090     9.32178740    -0.93707592     0.18569645     4.73943346
O       3.52773653     0.29223117     8.83463110    -0.94279097    -0.18599007    -4.73954761
O       4.08064305     2.40696583     3.26962212     0.94279097     0.18599007     4.73954761
