# total energy = -4988.79145877 eV

CRYSTAL
PRIMVEC
        3.57942502     0.00000000     0.00000000
        0.35704157     3.56157336     0.00000000
       -1.96826504    -1.78081540     4.57387802
PRIMCOORD
6 1
Ti      0.26764402     2.67131550     1.14346928     0.00188770    -0.00223249    -0.00066052
Ti      1.70055721    -0.89055783     3.43040819    -0.00188770     0.00223249     0.00066052
O       0.08929813     0.89038771     0.74504728     0.00024477     0.00136654     1.09339391
O       1.87890300     0.89036987     3.82883029    -0.00024477    -0.00136654    -1.09339391
O      -0.08927832    -0.89036978     3.03198618     0.00134854     0.00019283     1.09186410
O       2.05747940     2.67112731     1.54189138    -0.00134854    -0.00019283    -1.09186410
