# total energy = -19070.96973859 eV

CRYSTAL
PRIMVEC
        5.17600016     0.00000000     0.00000000
        0.00000000     5.50899976     0.00000000
        0.00000000     0.00000000     9.26300011
PRIMCOORD
22 1
Ti      1.73751402     3.24794798     3.18229598     1.40535805     0.64718213    -0.08552624
Ti      3.57301199     2.25546600     6.03871598     0.46980757    -0.16629644     0.14042419
Ti      4.44927702     2.15780999     1.20040102    -0.36026851    -0.98337173    -0.35527002
Ti      0.72587402     3.32459502     8.02764899     0.99034200     1.17777523     1.90460091
Ti      1.80617901     0.47348600     1.27017198    -1.19675666     1.11094221    -0.24195118
Ti      3.24750400     5.13715601     7.97255402     0.28325957    -0.92939089     1.49699940
Ti      0.65343400     0.51529100     5.96368002     1.46656421    -0.36132626    -0.59630898
Ti      4.32829599     4.80323702     3.58100997     0.71826519     1.37872013    -0.54107318
O       3.29438800     3.40145098     4.60721399    -1.11003178     0.25539009    -0.24609117
O       0.97628900     2.17523801     0.38337601    -1.75360459    -0.18034393    -0.33980098
O       4.42031002     4.09342998     9.05619298     0.44757369    -1.48965633    -0.06342322
O       3.28103601     1.05377601     9.21467998     1.87414644     0.90190990     0.43895715
O       1.49648897     5.00046201     9.10517902    -0.06345408    -1.33719448    -3.06057369
O       4.82419402     1.10045500     4.64226098    -3.22753399     0.73946188     0.14835116
O       0.79697602     4.78480101     4.31661398     2.09435122    -2.56737961     1.14743697
O       5.11919801     3.17714798     2.69846901    -0.01744237     0.26050967    -0.47293378
O       0.39895699     2.63140098     6.30900998    -0.87360461    -1.12807604     1.25402286
O       2.80795297     1.71522799     2.35634602    -0.46817646     1.74098227     1.20397247
O       2.62411500     3.21866098     7.75526400    -0.46282934    -0.21398708    -2.93003771
O       0.04438501     0.41613001     2.21658602     0.02973585     1.14692815    -1.96552631
O       2.62697298     0.26509902     6.21862899    -0.76844054     1.87508001     0.58983134
O       2.61344599     4.54046199     2.08331199     0.52273966    -1.87785886     2.57392025
