# total energy = -19074.92305036 eV

CRYSTAL
PRIMVEC
        7.60600008     0.00000000     0.00000000
        0.00000000     7.60600008     0.00000000
       -1.89786986    -1.89786986     4.85670466
PRIMCOORD
22 1
Ti      3.72858401     6.68334399     1.20698499     0.78509513     0.41497183    -0.18082550
Ti      3.87241100     2.90227702     1.23518199     0.43124461    -0.49785960     0.86087868
Ti      0.06338400     6.60408599     1.04892398    -1.53370243    -1.49072308     0.16484763
Ti      0.16477198     2.62049701     1.12774303    -1.30236039     1.76263560    -0.66806438
Ti      5.83051320     2.78220824     3.54006584    -0.29112201    -0.28588569     0.67137725
Ti      5.98495422    -1.08853179     3.58864283    -0.37810914     0.88204118     0.76981428
Ti      1.96943723     2.95577224     3.78386182     0.21573698    -0.27979732    -1.97635091
Ti      1.27288624    -0.69960979     3.87554781    -0.09660384    -1.19666307    -0.59967198
O       3.58776402     4.71991202     0.73041701    -0.15733563     1.77671033     1.57515660
O       3.76218598     1.03853200     0.75024999     0.01829881    -0.22264450     3.38760913
O       0.20429401     4.63417102     0.57771201    -0.26619515     0.61316437     1.07206377
O       7.24353600     0.78506001     0.62265800     0.59049700     1.08914516     0.99128945
O       5.64768521     4.67559523     3.94830079     0.68720959     0.08260238    -0.14314339
O       5.72285823     0.81263522     3.91418082     0.44672960    -0.21209475    -0.04676864
O       1.99582920     4.96664520     4.25658279    -0.46155921    -1.19573311    -1.31041669
O       2.06386922     0.96364823     4.06430682    -0.48176680     0.86596406    -0.06555056
O       3.81133321     2.94658122     3.26389283    -0.31258327    -0.23113275    -0.55956661
O       0.17472221     2.96553323     3.14738383    -1.26302404    -0.50753775     0.16336487
O       5.69847803     6.41026699     1.80442499    -0.74687489     0.40969747    -1.67221783
O       5.72034299     2.98355801     1.62444102     0.40270021    -0.47907152    -0.58897645
O       1.60145499    -0.77454399     2.07404303     2.01154676    -0.59805681    -1.89142400
O       1.86762903     2.84638802     1.52081599     1.70217840    -0.69973267     0.04657555
