# total energy = -4961.38813702 eV

CRYSTAL
PRIMVEC
        5.44230520     0.00000000     0.00000000
       -0.00000752     2.62036901     0.00000000
       -2.72118309    -1.31025771     5.86311442
PRIMCOORD
6 1
Ti     -0.00023250     1.96536364     1.46577830    -0.01524562    -0.01735984    28.86552467
Ti      2.72134704    -0.65525251     4.39733540     0.01524562     0.01735984   -28.86552467
O       0.00005791     0.65507968     0.95505329     0.01362788     0.01667412   -22.47898536
O       2.72105645     0.65503133     4.90806046    -0.01362788    -0.01667412    22.47898536
O      -0.00002223    -0.65510948     3.88661039    -0.00176712    -0.00068263    -1.80410545
O       2.72113654     1.96522049     1.97650336     0.00176712     0.00068263     1.80410545
