# total energy = -19517.18437297 eV

CRYSTAL
PRIMVEC
        5.93400000     0.00000000     0.00000000
        0.00000000     9.29699974     0.00000000
        0.00000000     0.00000000     4.64899994
PRIMCOORD
23 1
Ti      4.38845497     6.99080301     2.26601202     0.40256343     0.22937565    -1.27896052
Ti      4.50625401     2.38918501     2.34335398    -0.17299314    -0.77108569    -0.09375763
Ti      1.41500801     6.96602402     2.32777198    -0.33414532     0.28499841    -0.70688600
Ti      1.44147502     2.26906802     2.29211300     0.09301818    -0.10972161     0.24878698
Ti      2.94884700     4.50061801     0.01866599     0.10109941     0.80711740     1.30467953
Ti      2.93358098     0.10296800     0.02083900    -0.02849529     0.06243412    -0.10403099
Ti      0.00244401     4.67204397     4.57959501    -0.40925730     0.46494304     1.49150701
Ti      5.88990901     9.25527602     4.59023301     0.68103791     0.01421152     0.21604062
O       4.34562601     5.60086901     0.97385802     0.12047397    -0.38802075    -0.37543159
O       4.65376402     0.96178701     0.84920899    -1.47106930    -0.29171722     0.99275215
O       1.46840300     5.58350802     1.05699002     0.69464908    -0.77384192    -1.06321969
O       1.45293202     0.99245098     0.82913402     0.96891853     0.19481693     1.36610166
O       4.67846400     8.28654902     3.65999598    -1.57187741     0.06354690     0.51863721
O       4.41484600     3.70936800     3.85354298     0.49365559     0.43264200    -0.87960943
O       1.63105801     8.56435601     3.64565802    -0.25425212    -1.13589400     0.08863727
O       1.45284699     3.71806498     3.86148799     0.37370381    -0.43381803    -0.83474443
O       3.07882801     1.49340001     3.34789501    -0.65217599    -0.12030762    -0.88717799
O       0.11998602     5.91734902     3.28506701    -0.47588900     1.09206516    -0.19135365
O       5.84116300     1.41000998     3.32659499     1.33321879     0.82592709    -1.58838647
O       2.93231598     7.89361702     1.39999398     0.77471481    -0.27572572     0.63669254
O       3.07671998     3.25445501     1.34624799    -1.15589231    -1.02529950     1.54329342
O       0.01286599     7.70875101     1.42086102    -0.02615559     1.33710835    -0.55727319
O       0.02665201     3.34244502     1.55026301     0.51514899    -0.48375427     0.15370292
