# total energy = -19961.13565335 eV

CRYSTAL
PRIMVEC
        5.93400000     0.00000000     0.00000000
        0.00000000     9.29699974     0.00000000
        0.00000000     0.00000000     4.64899994
PRIMCOORD
24 1
Ti      4.48597102     6.97893002     2.23883501    -0.75279306     0.79530575     0.15098680
Ti      4.41912402     2.33475702     2.31637599     0.59831984     0.53236485     0.08087999
Ti      1.47288899     6.91261199     2.38180399     0.56402491     0.82992541     0.01210964
Ti      1.48277302     2.27868402     2.39334202    -0.64417934     0.34107316    -0.30586215
Ti      2.95977901     4.67125000     4.64198898     0.90473400     0.25280818    -0.00079396
Ti      2.92908001     0.07638700     0.04659199     0.73126855    -1.82212169    -0.24232193
Ti      0.04502399     4.59834498     4.61505698    -0.93749064     0.09949299     0.28409081
Ti      5.92371502     0.02241399     0.02358501    -0.81334616    -1.18001929    -0.82755845
O       4.44511499     5.52666899     0.83346401    -0.04694399     0.30618225     0.66238430
O       4.46358698     0.90682698     0.99218702    -0.02503921    -0.20426625    -0.38586282
O       1.46118200     5.57790298     0.83970100     0.22169782    -0.09555971     0.26084288
O       1.46430097     0.81646398     0.92389098     0.12261904     1.04986614     0.84224614
O       4.47648901     8.43013899     3.69438699     0.16523329     0.14816785     0.28701055
O       4.41380902     3.82397499     3.65531101    -0.10017099    -0.77965621     0.19124849
O       1.49222000     8.38908600     3.66762200    -0.19326398     0.28861724     0.54243920
O       1.49320501     3.78002698     3.72420401     0.32555912    -0.59258731    -0.38746256
O       3.01011302     6.15242903     3.21884101    -0.39562530    -0.74813705     0.12492892
O       2.92696801     1.45323699     3.36278998     0.45629822     0.55864307    -0.86826906
O       5.88162098     5.92982199     3.18295401     0.59420093     1.31238127    -0.70458511
O       5.92354298     1.48654298     3.28549898     0.18125436    -0.19754693     0.13555966
O       2.97051601     7.86766998     1.35189002     0.13604972    -0.34387900     0.32525084
O       2.96856499     3.11501702     1.36895800    -0.19502725     0.56907661     0.01621081
O       0.04697999     7.92933998     1.41387499    -0.33452687    -0.85601929     0.22386526
O       0.07348700     3.24568998     1.46573600    -0.56285249    -0.26411179    -0.41733828
