# total energy = -4984.89694961 eV

CRYSTAL
PRIMVEC
        2.94992800     0.00000000     0.00000000
        1.77772888     4.26654903     0.00000000
       -0.00001133    -0.00006141     4.72118413
PRIMCOORD
6 1
Ti      2.36382270     2.13324367     2.36059201     0.00000000     0.00000000     0.00000000
Ti      0.00000000     0.00000000     0.00000000     0.00000000     0.00000000     0.00000000
O       1.82141489     0.83147549     0.92008923    -4.44454376     2.10683959     2.46170286
O       2.90623050     3.43501184     3.80109474     4.44454376    -2.10683959    -2.46170286
O       0.54240295     1.30174339     3.28068227     4.44403545    -2.10674806     2.46136631
O       1.23531459     2.96474413     1.44050175    -4.44403545     2.10674806    -2.46136631
