# total energy = -19074.58640144 eV

CRYSTAL
PRIMVEC
        7.60600008     0.00000000     0.00000000
        0.00000000     7.60600008     0.00000000
       -1.89786986    -1.89786986     4.85670466
PRIMCOORD
22 1
Ti      3.83689898     6.68810600     1.09131600    -0.77354881    -1.22123075     1.78378344
Ti      3.80618998     2.79977200     1.20491702    -0.36661888     0.82736279     1.07324622
Ti     -0.00514900     6.88036901     1.20514202     0.28635955    -0.47404166    -0.75224079
Ti     -0.03411600     2.88884401     1.35779500    -0.16487257     1.51926182    -0.87288393
Ti      5.66902820     3.07322921     3.69788782    -2.26066566     0.33300143     0.62606334
Ti      5.69086121    -0.71815380     3.56476180     0.36948283    -1.89806902     0.90229068
Ti      1.81938420     2.78824123     3.63669879     1.22712706    -0.15799666     0.67241829
Ti      1.65737823    -1.09803179     3.65196682     4.05294994     1.54185283     0.54198386
O       3.47551902     4.79194998     0.84128202     0.45308022    -1.04764239    -0.15162804
O       3.80540399     0.95819998     0.86198402     0.27559768     0.37912961    -0.87498375
O      -0.19000099     4.68057098     0.72772201     0.86694365     0.40764753     0.20526204
O      -0.22306499     1.21536901     0.69158000    -0.19735152    -1.13230165    -0.15394023
O       5.64195523     4.98200420     4.13380679    -0.49683039    -0.29779839     0.13965826
O       0.02010223    -1.24600075     3.39177381    -3.44507203     0.63050415    -1.46063808
O       2.26332724     4.70509422     4.17789783    -0.84333449     1.16096689    -2.63379406
O       1.72089722     0.94044021     4.10676779     0.33638912    -0.29276288    -0.21152808
O       3.75950024     2.94332620     3.29967183    -0.24203449    -0.76655207    -0.36819625
O      -0.18670675     3.09543820     3.23650384     3.69765524    -0.09513625     1.18397930
O       5.59995300     6.61033298     1.63635899     1.28577549     0.48740241     0.60164993
O       5.68907698     2.85279498     1.75096502    -1.89148596    -0.15759814    -1.07763227
O       1.96542998     6.92035697     1.70705802    -1.37458734    -0.74327355     0.60295631
O       1.88435902     2.50750402     1.72547101    -0.79495840     0.99727369     0.22417380
