# total energy = -19898.97305247 eV

CRYSTAL
PRIMVEC
        6.80375784     0.00000000     0.00000000
        2.12460779     6.92255920     0.00000000
        0.00000000     0.00000000    12.31968988
PRIMCOORD
24 1
Ti      3.72507555     4.10230220     4.57051708    -0.37137131    -1.77888986     0.53257234
Ti      5.20328996     2.82025715     7.74917287     0.37137131     1.77888986    -0.53257234
Ti      6.73336950     2.82025953     1.58927868     0.25854920    -0.61734781    -0.18217841
Ti      2.19499612     4.10230009    10.73041141    -0.25854920     0.61734781     0.18217841
Ti      2.66277181     0.64102272     1.58932807    -0.37137131    -1.77888986    -0.53257234
Ti      6.26559373     6.28153684    10.73036202     0.37137131     1.77888986     0.53257234
Ti      1.13269225     0.64102014     7.74912348    -0.25854920     0.61734781    -0.18217841
Ti      7.79567330     6.28153942     4.57056647     0.25854920    -0.61734781     0.18217841
O       2.90154280     2.43755082     6.28664345     1.75402651     1.94449185    -0.62183747
O       6.02682272     4.48500860     6.03304650    -1.75402651    -1.94449185     0.62183747
O       1.99660547     2.43757875     0.12683814    -0.63317450    -0.10833527     1.10014023
O       6.93176013     4.48498073    12.19285147     0.63317450     0.10833527    -1.10014023
O       4.96451895     1.02372891     0.12679817    -1.75402651    -1.94449185    -0.62183747
O       3.96384657     5.89883051    12.19289144     1.75402651     1.94449185     0.62183747
O       5.86945636     1.02370104     6.28668342     0.63317450     0.10833527     1.10014023
O       3.05890910     5.89885846     6.03300653    -0.63317450    -0.10833527    -1.10014023
O       1.53950316     4.21069298     3.32785559     0.54972160     1.93819496     1.97719578
O       7.38886236     2.71186644     8.99183436    -0.54972160    -1.93819496    -1.97719578
O       4.48136974     2.71180190     2.83202857     0.52931500     1.82590867     1.15364310
O       4.44699578     4.21075753     9.48766118    -0.52931500    -1.82590867    -1.15364310
O       0.47719932     0.74941330     2.83198922     0.54972160     1.93819496    -1.97719578
O       8.45116613     6.17314613     9.48770053    -0.54972160    -1.93819496     1.97719578
O       3.38469201     0.74947784     8.99187364    -0.52931500    -1.82590867     1.15364310
O       5.54367351     6.17308158     3.32781624     0.52931500     1.82590867    -1.15364310
