# total energy = -19517.53441017 eV

CRYSTAL
PRIMVEC
        7.60600008     0.00000000     0.00000000
        0.00000000     7.60600008     0.00000000
       -1.89786986    -1.89786986     4.85670466
PRIMCOORD
23 1
Ti      3.82592400     6.54439702     1.22905898    -0.59783004    -0.92662747     0.23119214
Ti      3.85058303     2.75577102     1.15729699     0.28360435     1.55538429     1.08397338
Ti     -0.02185401     6.77449398     1.30761101     0.42311735    -1.59856213    -1.63980752
Ti      0.05104798     2.88254702     1.14469802    -1.08412019     2.70617656     0.20281589
Ti      5.68488023     2.90103224     3.55553184    -1.22113973     0.71340169     2.86912722
Ti      5.60517021    -0.95098280     3.63654982     0.25976225    -0.39092378     0.15242559
Ti      1.89911020     2.81429622     3.57792180     1.75408976    -0.40445139     0.75582542
Ti      1.82677824    -1.13603280     3.72684879     0.44863761     1.49643170    -0.73337505
O       4.10638598     4.72586500     0.62236700    -0.93389572     0.49999953     1.44737349
O       3.88458399     0.88512399     0.87736202    -0.58855710     0.31314557    -0.57182333
O      -0.26174398     4.71655799     0.83729499     0.71252803     1.46904687     0.62228201
O      -0.18653900     1.07357702     0.66284901     0.37303995    -1.61614334     1.04139075
O       5.92331724     4.72623220     4.20990983    -0.11698061     0.97553295    -0.98465471
O       5.65330825     1.10090321     4.10519280     0.50382328    -1.83124859    -2.14316569
O       1.92840921     4.70543522     4.05438882    -1.13355404    -0.25480105     0.10257857
O       2.01311324     0.91355324     4.08776979    -0.65120257    -0.33682904    -0.76758411
O       3.83438724     3.13043121     3.18290183    -0.94040961    -0.93749269    -0.82964130
O       3.70062721    -1.19870580     3.28139479     1.61816551     0.55635813    -0.78663367
O      -0.03131380    -0.92551879     3.24975782     0.68119398     0.08956570     0.35107553
O       5.73524902     6.84148702     1.65395498    -1.08498357    -0.36258764     0.51253572
O       5.71774600     2.95894502     1.76381699     0.83906517    -0.90546059    -1.81359257
O       1.94938601     6.57022103     1.48162200    -0.56069636     0.24213733     1.21254376
O       1.82306600     3.12101302     1.65688699     1.01634229    -1.05205235    -0.31486152
