# total energy = -19041.36442278 eV

CRYSTAL
PRIMVEC
        7.60600008     0.00000000     0.00000000
        0.00000000     7.60600008     0.00000000
       -1.89786986    -1.89786986     4.85670466
PRIMCOORD
22 1
Ti      4.08924900     6.70622000     1.42165400     1.14243412    -1.34122572    -0.45717702
Ti      4.44729721     2.65419021     2.48210182    -3.50613601     3.48986349    -3.23911682
Ti      0.02662000     6.17530398     0.59927598    -0.06959028     3.88371781     3.68156295
Ti      5.66798424     0.83565020     4.70984983     0.80862279    -8.83151663    16.50970795
Ti     -0.88877780     2.63154020     3.97283683   -10.79852313     9.17403398    10.96605807
Ti     -0.88260876     1.41410724     2.87324879     2.67162991   -14.65094649   -19.12955146
Ti      0.94227524     2.44298620     4.23265979    20.50320780     2.89148220     9.54053048
Ti      0.85752321    -0.71616478     4.15426981    -0.34097443    -0.44059957     2.72433729
O       4.20485301     4.53434602     2.25220198    -0.16079325    -0.16439023    -0.69758914
O       3.65768802     0.82779298     1.16684197     0.85818030    -0.05310461     1.65896559
O       0.65964299     4.12981102     0.97144698    -0.14221702     2.43009782    -0.95125813
O       0.27601102     0.92359300     0.71912003    -0.33018145    -1.77252201     2.00734583
O       6.15509523     4.15437924     3.69159781    -3.55839550     7.36171514     0.45974684
O       4.44272623     1.10608523     3.83953481    -8.52369145     2.26863968    -8.47037112
O       1.33036923     4.64272221     4.82122984    -1.92759378    -1.54476152    -1.27072810
O       3.45045999     2.91164700     0.12935098    -0.98937063    -4.63158592    -0.69446242
O       2.55437621     2.80165524     3.40412380     0.32509837    -0.75467279     0.02343819
O       0.27037724     2.91374323     2.83681779     3.28521826     2.27055104   -13.49555144
O       5.93869597     6.28181498     0.55256598    -1.36791969     0.32076298     1.23447039
O       5.93942502     2.27466502     1.12474598    -1.74521611     0.02968108     3.78608939
O       1.11896022    -0.82239976     2.45282281     0.50890815    -0.36274165    -0.50578940
O      -1.12504877    -0.54044179     3.79177482     3.35730302     0.42752165    -3.68065767
