# total energy = -78964.86451603 eV

CRYSTAL
PRIMVEC
       10.35150501     0.00002646     0.00000000
        0.00002858    11.01713167     0.00000000
        0.00000000     0.00000000     9.26345890
PRIMCOORD
94 1
Ti      7.18134267     8.68647576     3.27747538     0.02959521    -0.01398604    -0.01456068
Ti      7.08451860     3.32463444     3.45768688     0.01098710    -0.01992606     0.05791155
Ti      1.79625355     8.77277169     3.47680507     0.01378575     0.01617199    -0.04298989
Ti      1.83057522     3.40671268     3.48945402     0.02031224    -0.01639053     0.03665777
Ti      8.36741701     7.68363758     5.74179912     0.00302002     0.00565257     0.00007713
Ti      8.52598461     2.19162784     5.82201750     0.07285224     0.01307895     0.03510740
Ti      3.34237490     7.63734422     5.79506460    -0.00865999     0.01492295     0.03000324
Ti      3.18429602     2.24203945     5.82090352     0.00676715     0.01775553     0.04618629
Ti      9.74750751     7.68358914     1.10984178    -0.00299534     0.00588937     0.00046048
Ti      9.58956256     2.19178945     1.19031436    -0.07200506     0.01300310     0.03566121
Ti      4.42152303     7.63697000     1.16351349     0.00930508     0.01518443     0.03016137
Ti      4.57906765     2.24221162     1.18912859    -0.00649821     0.01749096     0.04636164
Ti      5.96728217     8.77268316     8.10857091    -0.01319696     0.01564311    -0.04288833
Ti      5.93295462     3.40681713     8.12120824    -0.02057115    -0.01600101     0.03633510
Ti      0.58250650     8.68647296     7.90913878    -0.03062853    -0.01406163    -0.01428248
Ti      0.67935273     3.32478845     8.08960659    -0.01207339    -0.01984198     0.05804705
Ti      7.04471038     6.05527608     1.18025918    -0.03009066    -0.04738185    -0.00163959
Ti      7.02678336     0.53931654     1.20853107    -0.02379377    -0.00606883    -0.04692548
Ti      1.89507303     6.04077641     1.22646698    -0.00950974     0.02803146    -0.02792913
Ti      1.91457169     0.86010917     1.33594622    -0.00990184     0.01869861     0.08159142
Ti      8.47022313    10.49290363     8.07151154     0.00737316     0.00890219     0.01566934
Ti      8.51120634     4.95703530     8.05053409    -0.07155151     0.01562769     0.03403602
Ti      3.50244362    10.41560098     7.93946891    -0.05707491    -0.00614494    -0.03793690
Ti      3.28729723     4.93599261     8.08726055    -0.02252827     0.01575958    -0.02351917
Ti      5.86860204     6.04057433     5.85801050     0.00871913     0.02866858    -0.02756969
Ti      5.84882547     0.86038978     5.96760100     0.00983859     0.01877060     0.08203570
Ti      0.71914439     6.05534537     5.81204315     0.02968237    -0.04694168    -0.00204737
Ti      0.73701571     0.53929637     5.84049012     0.02422520    -0.00582664    -0.04737362
Ti      9.64518460    10.49283987     3.43992789    -0.00795165     0.00799870     0.01498414
Ti      9.60390911     4.95734860     3.41898794     0.07010475     0.01488592     0.03412729
Ti      4.26211605    10.41568357     3.30746268     0.05689622    -0.00580684    -0.03789859
Ti      4.47616017     4.93583809     3.45558048     0.02190349     0.01575521    -0.02350246
O       6.76058793     7.47088399     4.71925547     0.03254581     0.01039497     0.00012213
O       6.84638757     1.91230273     4.71298144     0.00699520     0.02409510    -0.04377768
O       1.59762281     7.44091699     4.75578474     0.04177093    -0.00818357     0.00800950
O       1.67408723     1.88255604     4.68742353     0.01480262     0.02063594    -0.00524762
O       8.60817126     9.12692727     4.54647248     0.03707712    -0.00920224     0.03506138
O       8.72102945     3.58295566     4.53135375     0.01189367    -0.00205174     0.00452591
O       3.49405673     9.10813259     4.55264701    -0.03259543    -0.02235421    -0.00609969
O       3.56930851     3.55552462     4.51888496    -0.01885314    -0.05359826     0.00694712
O       6.16596152     7.44085326     0.12413422    -0.04140352    -0.00809204     0.00757524
O       6.08934752     1.88260922     0.05571774    -0.01494789     0.02040403    -0.00479999
O       1.00291260     7.47083998     0.08749722    -0.03201025     0.01032427    -0.00042475
O       0.91717412     1.91214029     0.08121105    -0.00715255     0.02406348    -0.04356067
O       9.50700557     9.12693582     9.17808492    -0.03715117    -0.00910325     0.03495545
O       9.39409239     3.58288201     9.16303597    -0.01216158    -0.00200443     0.00459019
O       4.26976051     9.10827120     9.18429857     0.03306414    -0.02273087    -0.00586752
O       4.19413752     3.55564206     9.15067750     0.01914470    -0.05395668     0.00732533
O       8.72625469     6.33902907     0.07012097     0.02431339     0.02259178     0.01718860
O       8.69956804     0.83350030     0.09861156    -0.05037796     0.01206953     0.01992091
O       3.57392325     6.34542362     0.09196240    -0.00706205    -0.01329955    -0.02125686
O       3.28582988     0.63586981     0.07108737    -0.00165579    -0.07521534    -0.02274013
O       6.86312509    10.15974235     9.19280618    -0.01071328    -0.01148229     0.00490772
O       6.81121783     4.67649580     9.20384591    -0.04095743    -0.04347249    -0.04083942
O       1.65224307     4.68402014     9.16196209    -0.00720012     0.05094694     0.01552587
O       9.38880771     6.33905572     4.70193369    -0.02439155     0.02301961     0.01719220
O       9.41552720     0.83351756     4.73037415     0.05068880     0.01198392     0.01963398
O       4.18960733     6.34536325     4.72368405     0.00733716    -0.01347850    -0.02080923
O       4.47775679     0.63585093     4.70288000     0.00183731    -0.07527730    -0.02325898
O       6.11123406     4.68401785     4.53019726     0.00787066     0.05064869     0.01583209
O       0.90056719    10.15973845     4.56106199     0.01115576    -0.01161368     0.00517126
O       0.95234602     4.67650067     4.57208395     0.04081988    -0.04297266    -0.04064607
O       5.41536397     9.00825740     2.69730492    -0.01687390    -0.03407047    -0.04156704
O       5.37866944     3.36981899     2.45412872     0.02043848     0.01770359    -0.03637598
O       0.15770146     8.84834814     2.50734264    -0.01591333    -0.00614828    -0.00944906
O       0.19928991     3.35305185     2.49828326     0.00783184     0.01023788     0.00888471
O      10.10502757     7.59650037     6.75391874    -0.01397369     0.03895943     0.01012218
O      10.19261896     2.14682801     6.76739938    -0.01790311    -0.00875204     0.01229631
O       4.96509447     7.65134262     6.78793665    -0.00721143     0.02219763     0.01778561
O       4.95159029     2.19775417     6.78204326    -0.03772453    -0.03671074    -0.02433961
O       8.01011622     7.59641446     2.12222187     0.01454576     0.03916743     0.00998720
O       7.92259540     2.14693403     2.13560020     0.01771876    -0.00907754     0.01233410
O       2.79853855     7.65135463     2.15615085     0.00730065     0.02216986     0.01767197
O       2.81181784     2.19765356     2.15024811     0.03772632    -0.03686732    -0.02459030
O       7.60595019     8.84837187     7.13915596     0.01649260    -0.00613697    -0.00966015
O       7.56424616     3.35309046     7.13003747    -0.00790306     0.01026076     0.00915416
O       2.34844443     9.00845782     7.32910854     0.01762800    -0.03365601    -0.04134438
O       2.38489158     3.36979938     7.08581001    -0.02080383     0.01866493    -0.03577486
O       5.39330784     6.17519178     2.16891533    -0.00361729    -0.01538317     0.00153521
O       5.31274203     0.58536869     2.08674677     0.00830852    -0.02634045    -0.02804123
O       0.22585442     6.09286885     2.11882908     0.02830837     0.02326901     0.02511480
O       0.15656690     0.58924276     2.12617466     0.02565859    -0.00910891    -0.00471900
O      10.23842325    10.41997285     7.20404905     0.04914177     0.01410636    -0.01408425
O      10.14379580     4.90226773     7.12173156     0.04004238    -0.00828898    -0.01302084
O       5.10731206    10.38462027     7.06238682    -0.01047596     0.07386088    -0.01533715
O       4.97701269     4.89090614     7.12118582    -0.01048599    -0.00166916    -0.00384072
O       7.53764760     6.09288232     6.75060233    -0.02804715     0.02329909     0.02506672
O       7.60710793     0.58940717     6.75782519    -0.02580874    -0.00949920    -0.00427909
O       2.37027334     6.17522032     6.80063188     0.00366151    -0.01535052     0.00179000
O       2.45093535     0.58540712     6.71844059    -0.00832215    -0.02714443    -0.02788568
O       7.87688128    10.41994170     2.57228214    -0.04956960     0.01411690    -0.01420869
O       7.97132814     4.90232133     2.49003847    -0.04005446    -0.00854481    -0.01285655
O       2.65684704    10.38471813     2.43095707     0.01001008     0.07362022    -0.01603109
O       2.78647081     4.89082983     2.48939375     0.01085366    -0.00148995    -0.00384406
