# total energy = -4980.22593946 eV

CRYSTAL
PRIMVEC
        4.45244393     0.00000000     0.00000000
        0.00000000     2.64618755     0.00000000
        0.00000000    -0.00010563     6.03291545
PRIMCOORD
6 1
Ti      2.22622196     1.32304080     3.01645745     0.00000000     0.00000000     0.00000000
Ti      0.00000000     0.00000000     0.00000000     0.00000000     0.00000000     0.00000000
O       2.22622196     0.51568233     1.17572627    -0.00000000    -0.16960468     2.29053032
O       2.22622196     2.13039926     4.85718863    -0.00000000     0.16960468    -2.29053032
O       0.00000000     0.80731668     4.19218505     0.00000000     0.16933600     2.29078126
O       0.00000000     1.83876491     1.84072985     0.00000000    -0.16933600    -2.29078126
