# total energy = -19938.51967715 eV

CRYSTAL
PRIMVEC
        5.91403566     0.00000000     0.00000000
        1.84677446     6.01730146     0.00000000
        0.00000000     0.00000000    10.70865351
PRIMCOORD
24 1
Ti      3.23795028     3.56584730     3.97283408     0.19339280    -2.29060565     0.88458734
Ti      4.52285974     2.45145429     6.73581950    -0.19339280     2.29060565    -0.88458734
Ti      5.85285195     2.45145636     1.38144993    -0.75919717    -0.68997147     0.17126356
Ti      1.90795817     3.56584546     9.32720377     0.75919717     0.68997147    -0.17126356
Ti      2.31456319     0.55719667     1.38149286     0.19339280    -2.29060565    -0.88458734
Ti      5.44624686     5.46010510     9.32716083    -0.19339280     2.29060565     0.88458734
Ti      0.98457095     0.55719443     6.73577656     0.75919717     0.68997147     0.17126356
Ti      6.77623910     5.46010734     3.97287701    -0.75919717    -0.68997147    -0.17126356
O       2.52211028     2.11879418     5.46454392     1.68732590     2.02512270    -0.76196110
O       5.23869975     3.89850747     5.24410965    -1.68732590    -2.02512270     0.76196110
O       1.73551091     2.11881845     0.11025161    -0.41638131    -0.27693054     1.11441268
O       6.02529919     3.89848325    10.59840167     0.41638131     0.27693054    -1.11441268
O       4.31531263     0.88985667     0.11021687    -1.68732590    -2.02512270    -0.76196110
O       3.44549740     5.12744498    10.59843641     1.68732590     2.02512270     0.76196110
O       5.10191207     0.88983244     5.46457867     0.41638131     0.27693054     1.11441268
O       2.65889791     5.12746928     5.24407491    -0.41638131    -0.27693054    -1.11441268
O       1.33818352     3.66006390     2.89267447     0.45899736     1.73580072     1.70530820
O       6.42262651     2.35723776     7.81597910    -0.45899736    -1.73580072    -1.70530820
O       3.89534447     2.35718165     2.46168637     0.91302890     1.50024285     0.67143998
O       3.86546556     3.66012001     8.24696703    -0.91302890    -1.50024285    -0.67143998
O       0.41479633     0.65141310     2.46165216     0.45899736     1.73580072    -1.70530820
O       7.34601364     5.36588856     8.24700123    -0.45899736    -1.73580072     1.70530820
O       2.94207844     0.65146920     7.81601324    -0.91302890    -1.50024285     0.67143998
O       4.81873159     5.36583245     2.89264027     0.91302890     1.50024285    -0.67143998
