# total energy = -19936.96387972 eV

CRYSTAL
PRIMVEC
        5.97235955     0.00000000     0.00000000
        1.56468209     6.16080735     0.00000000
        0.00000000     0.00000000    10.77501984
PRIMCOORD
24 1
Ti      3.09192231     3.65088891     3.99745571     0.03113633    -2.02087164     0.84384897
Ti      4.44511951     2.50991884     6.77756474    -0.03113633     2.02087164    -0.84384897
Ti      5.78822793     2.50992097     1.39001149    -0.35134781    -0.50775758    -0.02257867
Ti      1.74881391     3.65088702     9.38500908     0.35134781     0.50775758     0.02257867
Ti      2.30958139     0.57048528     1.39005469     0.03113633    -2.02087164    -0.84384897
Ti      5.22746046     5.59032271     9.38496588    -0.03113633     2.02087164     0.84384897
Ti      0.96647288     0.57048292     6.77752154     0.35134781     0.50775758    -0.02257867
Ti      6.57056896     5.59032502     3.99749892    -0.35134781    -0.50775758     0.02257867
O       2.44124068     2.16932513     5.49841041     1.70195420     1.96400704    -0.64961439
O       5.09580108     3.99148263     5.27661004    -1.70195420    -1.96400704     0.64961439
O       1.64688271     2.16935000     0.11093490    -0.62921628     0.01590254     0.95194204
O       5.89015918     3.99145787    10.66408525     0.62921628    -0.01590254    -0.95194204
O       4.31346014     0.91107882     0.11089994    -1.70195420    -1.96400704    -0.64961439
O       3.22358168     5.24972894    10.66412021     1.70195420     1.96400704     0.64961439
O       5.10781824     0.91105400     5.49844537     0.62921628    -0.01590254     0.95194204
O       2.42922353     5.24975382     5.27657508    -0.62921628     0.01590254    -0.95194204
O       1.16871798     3.74735241     2.91060184     0.43091294     1.46390312     1.52448193
O       6.36832378     2.41345536     7.86441861    -0.43091294    -1.46390312    -1.52448193
O       3.81612052     2.41339790     2.47694268     0.80157719     1.44155586     0.60162962
O       3.72092131     3.74740991     8.29807759    -0.80157719    -1.44155586    -0.60162962
O       0.38637704     0.66694860     2.47690826     0.43091294     1.46390312    -1.52448193
O       7.15066478     5.49385922     8.29811201    -0.43091294    -1.46390312     1.52448193
O       2.93858036     0.66700604     7.86445296    -0.80157719    -1.44155586     0.60162962
O       4.59846146     5.49380171     2.91056743     0.80157719     1.44155586    -0.60162962
