# total energy = -39034.22856494 eV

CRYSTAL
PRIMVEC
        7.60600008     0.00000000     0.00000000
        0.00000000     7.60600008     0.00000000
       -3.79573973    -3.79573973     9.71340985
PRIMCOORD
46 1
Ti      1.87306844     4.81778145     6.34092164     0.42868250     1.25567197    -0.77418773
Ti      3.86464999     6.96436701     1.29779302     0.08387893    -0.68146318     0.34905618
Ti      1.86919444     0.83125343     6.02627560    -0.14198948    -0.68490794    -0.28098671
Ti      3.72814501     2.84920901     1.25875498    -1.02236741     0.08791711    -1.71746104
Ti     -1.90260955     4.62296247     5.98628261     0.70375285    -0.61667444     0.13716275
Ti      0.09267201     6.52073401     1.24580300    -0.77350202     0.10031497    -0.25953831
Ti     -1.94637557     0.87950243     5.91904963     0.87342592     0.34839438     0.03057069
Ti     -0.29534203     2.88309397     1.13990701     2.78834621    -0.45110562    -1.08649769
Ti      3.68311547     1.05468243     8.34514264     2.02300000    -1.41324954     1.15813611
Ti      5.72529302     2.73365898     3.55797198     0.47908746    -0.50551198     1.68430794
Ti      4.00628645    -2.89198854     8.57138264    -0.32101289     1.72915519     1.73261487
Ti      5.78193600    -1.10398403     3.69071498    -0.77741447     0.61802555    -0.09582556
Ti     -0.04685558     1.17066248     8.30348163    -1.13045149    -1.45935252    -0.64700498
Ti      1.88996898     2.88208600     3.43660099    -0.51400536    -1.16274970     0.75546161
Ti      0.02686543    -2.65327457     8.43584664    -0.55356669     0.57241725     1.89533953
Ti      1.87807700    -1.03307999     3.65964100     0.72252756     0.52719539     0.97997042
O       1.74121244    -0.98086655     6.06847564     1.09711455    -0.11218859    -1.30735888
O       3.65580399     1.14180999     0.71077998     1.01229100    -1.87732587     0.26960469
O      -1.48138954     2.75936445     5.57442861    -1.51268211     0.45935886    -0.36439153
O       0.40105000     4.70426600     0.69271302    -1.55368016     0.24430631     0.22840455
O      -1.80142853    -1.16574457     5.61256763    -0.05417316     1.68270537     0.36456199
O       0.04114702     0.99964202     0.95184001    -0.49431636    -0.73073839    -0.62698894
O       3.67897047     2.81440846     9.03472061     0.42554421     0.67809426    -0.56087248
O       5.37805803     4.57242302     4.12163597     0.31042483     0.11000418    -0.88537076
O       3.62693843    -0.94507654     8.93708365    -0.22812918    -0.02834565    -0.43925900
O      -1.54854599     0.87796898     4.04941598    -0.83005911    -0.71677420    -0.92282095
O      -0.20210353     2.91145946     8.88151062     0.60020652     0.15213274     1.02728079
O       1.84146402     4.53536601     4.52456799     0.84228779    -1.16216143    -2.77486129
O      -0.02369656    -0.65209756     8.90117765     0.22507034    -0.06858934     0.70441774
O       1.73774602     1.08548801     4.14815998     0.45361733    -0.40485351     0.10574900
O       1.83979446     0.92902845     8.03718561     0.77402832     1.15261183    -0.16495098
O       3.89177101     2.36400501     3.10238598    -0.69100300     1.01581135     0.95691353
O       1.96756844    -2.94544958     8.13094661    -0.35214099    -0.21836413     1.73785555
O       3.97293801    -0.71535001     3.35612398    -2.49294152    -0.45412589    -0.77989584
O      -2.05644254     0.88066144     7.79091763     1.11302789     0.24125081     1.87931513
O       0.01682498     2.71702900     3.16306298    -1.22929681     1.37650692    -0.68520645
O      -1.82128453    -2.47102555     8.38635063    -0.77963333    -1.15651040    -0.65508030
O       0.06027398    -1.22156398     3.43928699     0.70787099    -0.12197986    -1.06284071
O       4.02062244     4.62618547     6.68760762    -1.81243300    -0.61756764    -0.84962521
O       5.73764698     6.50753898     1.70040002    -0.00255259    -0.03525061    -0.86914838
O       3.83996344     1.20771446     6.27418260    -2.58916766    -0.07182636    -0.02288000
O       5.53408102     3.18909199     1.47918001     1.68290746     0.48987632     0.80703976
O      -0.02323554     4.65701444     6.60145460     0.44926136    -0.20021831    -0.68309608
O       1.93133699     6.52908702     1.60248402     1.71918908     0.49075410     1.51094790
O       0.00975544     0.94747747     6.39203662     0.24604052     0.38177399     0.45142469
O       1.88561502     2.80081300     1.61389700     0.09493571     1.23755623    -0.24998537
