# total energy = -19960.40739218 eV

CRYSTAL
PRIMVEC
        7.60600008     0.00000000     0.00000000
        0.00000000     7.60600008     0.00000000
       -1.89786986    -1.89786986     4.85670466
PRIMCOORD
24 1
Ti      3.73919301     6.59171298     1.26358600     0.48666039    -1.98836491    -0.07219737
Ti      3.72112801     2.73740200     1.21097901     0.06488747     1.87279378     0.41290415
Ti      0.07333000     6.74051497     1.25180398     0.05809590     0.08152251     0.05314986
Ti      0.00043901     2.96331301     1.08379401    -0.43577618    -0.45243333     0.66310318
Ti      5.71097523     3.09765323     3.61677082     0.48004314    -1.00642425    -1.13267935
Ti      5.72364125    -0.87441677     3.60169980    -0.13569208     0.42430957    -0.06825536
Ti      1.78583722     2.72591224     3.63876179     0.46662943     0.15706746     0.41357650
Ti      1.87648624    -1.12939676     3.75162180     0.46406964     0.19586851    -1.02863834
O       3.64238998     4.69249001     0.70815002     0.21448510    -0.64872248     0.57878896
O       3.72153998     0.83425899     0.94148798     0.31626612     1.06083550    -0.73838434
O       0.17930600     4.74801001     0.83211001    -0.42805927     2.34358788    -1.29167334
O       0.21854999     1.05946403     0.79191799    -1.24867780    -1.46979146    -0.60890302
O      -1.48779777     4.90150020     4.06278480    -1.47754360    -1.25442396     0.86804974
O       5.76313322     1.04755320     3.88335979    -0.75446993    -0.58911014     0.75906784
O       1.66463023     4.68677225     4.12721684     0.52311427     0.69206949    -0.14757238
O       2.01757521     0.88623023     4.04062179    -0.18841848    -1.15051098     0.42612091
O       3.74551520     2.88427325     3.12096481     1.32270040     0.38109497     0.78112148
O       3.78355923     6.23517324     3.21642680     0.95902621     1.11371283     0.72653849
O      -0.01652679     2.92241920     3.23049879    -0.77234913    -0.60740072    -0.44480204
O       0.01175123    -0.86155078     3.27631580     0.13953511     0.36875212    -1.25083958
O       5.69167101     6.55407800     1.48645101     1.17874942     0.55734107     1.02511361
O       5.75583401     3.17637798     1.57302197    -0.78100090    -1.05069712     0.64159461
O       1.93293998     6.45758501     1.71807501    -1.51544168     0.77032542     0.41857395
O       1.82759502     2.77583498     1.68260702     1.06316646     0.19859825    -0.98375740
