# total energy = -19886.78127325 eV

CRYSTAL
PRIMVEC
        9.01357306     0.00000000     0.00000000
        0.00003017     4.61893245     0.00000000
        0.00000000     0.00000000    13.61807658
PRIMCOORD
24 1
Ti      3.26700473     2.73717518     5.05220928     0.37831303    -0.50781440     2.77030401
Ti      5.74659870     1.88175748     8.56586743    -0.37831303     0.50781440    -2.77030401
Ti      7.77363697     1.88175912     1.75677467     0.37778133     0.50775707    -2.77125531
Ti      1.23996653     2.73717375    11.86130225    -0.37778133    -0.50775707     2.77125531
Ti      3.26698972     0.42770902     1.75682928     0.37831303    -0.50781440    -2.77030401
Ti      5.74661378     4.19122377    11.86124764    -0.37831303     0.50781440     2.77030401
Ti      1.23995144     0.42770725     8.56581282    -0.37778133    -0.50775707    -2.77125531
Ti      7.77365199     4.19122555     5.05226389     0.37778133     0.50775707     2.77125531
O       2.85286351     1.62640470     6.94920025     0.73572144     1.32656400    -2.44719721
O       6.16073999     2.99252795     6.66887646    -0.73572144    -1.32656400     2.44719721
O       1.65399720     1.62642329     0.14020572    -0.73658662     1.32712398    -2.44932788
O       7.35960637     2.99250937    13.47787058     0.73658662    -1.32712398     2.44932788
O       6.16072490     0.68306173     0.14016155    -0.73572144    -1.32656400    -2.44719721
O       2.85287853     3.93587093    13.47791482     0.73572144     1.32656400     2.44719721
O       7.35959135     0.68304314     6.94924442     0.73658662    -1.32712398    -2.44932788
O       1.65401201     3.93588959     6.66883230    -0.73658662     1.32712398     2.44932788
O       0.32750244     2.80949659     3.67858221    -2.30478144     0.72775745     0.05139457
O       8.68610099     1.80943613     9.93949450     2.30478144    -0.72775745    -0.05139457
O       4.83430025     1.80939301     3.13049942    -2.30320098    -0.72786286    -0.05139329
O       4.17930319     2.80953971    10.48757709     2.30320098     0.72786286     0.05139329
O       0.32748742     0.50003030     3.13045594    -2.30478144     0.72775745    -0.05139457
O       8.68611608     4.11890236    10.48762057     2.30478144    -0.72775745     0.05139457
O       4.17928817     0.50007342     9.93953791     2.30320098     0.72786286    -0.05139329
O       4.83431533     4.11885924     3.67853873    -2.30320098    -0.72786286     0.05139329
