# total energy = -19517.69845216 eV

CRYSTAL
PRIMVEC
        5.17600016     0.00000000     0.00000000
        0.00000000     5.50899976     0.00000000
        0.00000000     0.00000000     9.26300011
PRIMCOORD
23 1
Ti      1.89435301     3.20864001     3.40837701    -1.19112157    -0.11625967     1.77045124
Ti      3.35962603     2.27053601     5.88678300     0.85920000     0.68634159    -2.13520504
Ti      4.33788701     2.06244399     1.45596998     1.48858984    -0.47455717    -0.70732463
Ti      0.86202598     3.37268998     7.78266601    -0.25562303     0.03628908     0.34303363
Ti      1.92245999     0.25905999     1.35769599     0.37008524    -0.32271959    -1.57207616
Ti      3.32583102     5.27298602     7.88008199    -1.98207702     0.97787343     0.39565718
Ti      0.76753599     0.55760899     5.89964597    -0.79060063    -0.26079532    -2.65645320
Ti      4.43332799     4.88785198     3.43408698     1.30005180     0.47177524     2.26144522
O       1.66874098     2.03592401     4.86290799    -0.59341649    -0.41495898    -0.70175433
O       3.55667401     3.53836199     4.42235201    -0.03355651    -0.03556017     0.66389739
O       0.32858499     2.59377002     0.06488602    -0.38013157     0.00285778     0.16177567
O       3.53313901     0.79515200     0.16249800    -0.57210563     0.36471138     0.09415769
O       1.81062600     4.67457201     8.93334199    -0.16232049     0.60397627     1.33274519
O       4.18006698     0.72383902     4.95665698     0.08134331    -0.08678325    -1.56848150
O       0.93423598     4.77131101     4.44122501     0.53903995     0.04158889     0.21945762
O       0.13516499     3.30944298     2.58882999     0.22151348    -0.19709878    -0.42954357
O       5.01572301     1.94980702     6.84246002    -0.38334931     1.51536609     0.67728282
O       2.59465300     1.81751700     2.29466099    -0.04091218     0.32427819    -0.42210768
O       2.52786602     3.72162602     6.90406302     0.30843222    -0.46867423     0.05550011
O       0.14215998     0.55135502     1.99960102     0.26749356     0.07178446     0.24618990
O       4.93362698     4.83547502     7.10403498     1.41831410    -1.42021646     0.63782151
O       2.34622402     1.07961203     6.88360101    -0.09733455    -1.59499729     2.28088251
O       2.87432201     4.52831700     2.32447103    -0.37151426     0.29577879    -0.94735185
