# total energy = -19073.86331587 eV

CRYSTAL
PRIMVEC
        5.93400000     0.00000000     0.00000000
        0.00000000     9.29699974     0.00000000
        0.00000000     0.00000000     4.64899994
PRIMCOORD
22 1
Ti      4.41013399     7.08815601     2.21348700    -1.59451315    -0.19517328     0.16960931
Ti      4.43127499     2.33048798     2.20948197     0.52625745    -0.76101442     0.32524441
Ti      1.37657497     6.99259501     2.61413900     2.09763709     0.46629673     0.03752449
Ti      1.64014800     2.44919800     2.16738899    -0.74629819     0.55245057    -0.23906795
Ti      3.06281802     4.60745302     4.48864998    -0.76862952     0.82388126    -0.02434064
Ti      2.94673601     9.22450500     4.64220198     0.85322964    -0.12645281    -0.02805049
Ti      5.82737301     4.61928199     4.53438301     1.00575962    -0.57866246     0.41241333
Ti      0.01356800     9.27520902     0.26478701    -0.98005090    -0.74603697     0.24085923
O       4.47293997     5.59969402     0.93235401     0.16947253    -0.20085954    -0.38507761
O       4.39719201     0.69703799     1.06915702     0.38553938     1.29226470    -0.15549498
O       1.47978100     0.83645900     1.02445800     0.29428035     0.96334155    -0.65336101
O       4.47829699     8.20579598     4.01325799    -0.30701194     0.83719598    -0.68888904
O       4.43862003     3.91920001     3.54115398     0.53477346    -1.94876065    -1.10712437
O       1.44098098     8.09405597     4.05027801    -0.09173674     1.30035056     0.42160014
O       1.58031203     3.94867201     3.54261499    -0.85285349    -0.59600456     0.04601685
O       3.04061099     6.07713901     3.14380902    -1.01085735    -0.34956732     0.69581842
O       2.94941502     1.47593700     3.22568698     0.27487957    -0.41993972     0.71287924
O       5.83729000     6.09955602     3.23760902     0.06884183    -0.90400381     0.06113237
O       2.81992000     8.05662198     1.64424098     0.46599205    -0.91541719    -0.27591932
O       3.19246301     2.97063000     1.08476500    -1.32553144     1.76344524    -0.24906954
O       0.00895802     8.10547202     1.72252201     0.54823627    -0.95401281    -0.01914110
O       5.92137299     3.01417901     1.12905602     0.45258323     0.69667846     0.70243850
