# total energy = -19890.35783453 eV

CRYSTAL
PRIMVEC
        8.98510661     0.00000000     0.00000000
        0.00002942     4.09837298     0.00000000
        0.00000000     0.00000000    13.67463000
PRIMCOORD
24 1
Ti      3.25668628     2.42869205     5.07319020     0.25706722    -0.33825369     2.77924862
Ti      5.72844936     1.66968100     8.60143999    -0.25706722     0.33825369    -2.77924862
Ti      7.74908580     1.66968239     1.76407020     0.25727265     0.33829662    -2.78001584
Ti      1.23604984     2.42869079    11.91056012    -0.25727265    -0.33829662     2.78001584
Ti      3.25667176     0.37950563     1.76412506     0.25706722    -0.33825369    -2.77924862
Ti      5.72846388     3.71886749    11.91050526    -0.25706722     0.33825369     2.77924862
Ti      1.23603533     0.37950410     8.60138514    -0.25727265    -0.33829662    -2.78001584
Ti      7.74910031     3.71886901     5.07324506     0.25727265     0.33829662     2.78001584
O       2.84385323     1.44310678     6.97805907     1.07300659     1.06679275    -2.45587417
O       6.14128241     2.65526620     6.69657113    -1.07300659    -1.06679275     2.45587417
O       1.64877312     1.44312332     0.14078797    -1.07284513     1.06693956    -2.45707745
O       7.33636259     2.65524973    13.53384183     1.07284513    -1.06693956     2.45707745
O       6.14126796     0.60607971     0.14074361    -1.07300659    -1.06679275    -2.45587417
O       2.84386768     3.49229334    13.53388619     1.07300659     1.06679275     2.45587417
O       7.33634814     0.60606317     6.97810342     1.07284513    -1.06693956    -2.45707745
O       1.64878744     3.49230987     6.69652677    -1.07284513     1.06693956     2.45707745
O       0.32646747     2.49286275     3.69385875    -2.13504511     0.64250041     0.00069754
O       8.65866818     1.60551023     9.98077145     2.13504511    -0.64250041    -0.00069754
O       4.81903220     1.60547204     3.14349982    -2.13526674    -0.64262716    -0.00039724
O       4.16610344     2.49290100    10.53113017     2.13526674     0.64262716     0.00039724
O       0.32645302     0.44367626     3.14345619    -2.13504511     0.64250041    -0.00069754
O       8.65868263     3.65469678    10.53117381     2.13504511    -0.64250041     0.00069754
O       4.16608899     0.44371445     9.98081502     2.13526674     0.64262716    -0.00039724
O       4.81904665     3.65465860     3.69381511    -2.13526674    -0.64262716     0.00039724
