# total energy = -19955.93994449 eV

CRYSTAL
PRIMVEC
        5.93400000     0.00000000     0.00000000
        0.00000000     9.29699974     0.00000000
        0.00000000     0.00000000     4.64899994
PRIMCOORD
24 1
Ti      4.36276199     6.61077198     2.00819401     1.44050427     2.33567608     3.21107301
Ti      4.45032802     2.51352097     2.31420700    -1.24403978    -4.27810127     0.55049499
Ti      1.43823201     6.82467702     2.00892300    -1.66570394     0.37023334     1.15660887
Ti      1.44612702     2.57811801     2.30726298     1.84555885    -3.33050491     0.87331125
Ti      2.99406101     4.67529799     4.46800900    -0.65877421    -4.19229607    -0.19795368
Ti      2.96800703     9.04446101     0.47173300     2.48770341     4.60814208    -3.79109225
Ti      5.92982802     4.74881600     4.57229099     0.90193355    -3.90662404    -0.34408675
Ti      0.11829800     9.29389300     0.33934502    -2.26508719     2.33148570    -1.83234388
O       4.41607602     5.78567802     0.47081598     0.26338159     0.66487055    -0.00688259
O       4.38596102     0.96682800     1.10387898     0.52110984    -0.27307517    -0.26027827
O       1.56919602     5.66499402     0.58695298    -0.95104036     1.88691146     1.09315222
O       1.54719701     0.92342298     1.22257699    -0.22032228    -0.66516289    -1.73029033
O       4.48816102     8.46201800     4.08354400    -0.75459412    -0.48337529     0.06436502
O       4.43906501     3.68409598     3.81348299     1.09437375     1.85432194     0.76656544
O       1.50297102     8.39379700     4.16664499     0.08233087    -1.23063610    -1.12274486
O       1.54019198     3.67286700     3.88475301    -1.05800677     1.80294254     0.23504751
O       2.90891798     5.76524099     2.81882900     0.13480736     0.08924251     0.46643942
O       2.88346498     1.73118401     3.22263500     1.00125068    -0.08719000    -0.20356048
O       0.01150098     5.75369100     2.93643001    -0.29113460     1.42799560    -1.00440696
O       0.10855902     1.59856398     3.07280698    -0.90612548    -0.19217795     1.58479104
O       2.90996898     7.93658701     1.83757102     0.78910399    -1.76456212     1.60361461
O       3.10192702     3.33444100     1.35226103    -1.05001064     2.56923055    -1.47924182
O       5.81568200     7.89769200     1.52083901     0.63983906    -2.14316363     2.12860013
O       5.91491300     3.39176301     1.38877198    -0.13705810     2.60581711    -1.76118164
