# total energy = -19518.69455824 eV

CRYSTAL
PRIMVEC
        7.60600008     0.00000000     0.00000000
        0.00000000     7.60600008     0.00000000
       -1.89786986    -1.89786986     4.85670466
PRIMCOORD
23 1
Ti      3.82026598     6.68810198     1.22143100    -0.03346061     0.65366054    -0.06142779
Ti      3.75183702     2.95249102     1.14867802     0.48901218    -0.82725121     1.66796137
Ti     -0.07747001     6.56584103     1.16587199     0.38163130    -0.67908208    -0.14056098
Ti      0.02534002     2.69215301     1.21500499    -0.46272881     1.28845355     0.95509807
Ti      5.65762221     2.83461520     3.68336180    -1.18338409     0.06050785    -0.30870116
Ti      5.71141424    -0.95619276     3.69268384    -0.47354493    -0.31498905    -1.08587111
Ti      1.93126624     2.90557924     3.67526083     1.34973273     0.45274547    -0.69861810
Ti      1.83593824    -0.91547680     3.57508181     0.83478428    -0.40139100     0.19488095
O       4.02500498     4.83169500     0.82836899    -0.49559112    -0.99950233    -0.51986157
O       3.74267003     1.06516602     0.87865099     0.03335571    -0.54762666    -1.28346689
O      -0.15187302     4.73262403     0.78095698     0.51302063     0.24117625     0.68064788
O       0.21721001     0.87921699     0.78418200    -0.15083151    -0.10984117     0.22093575
O       5.81762324     4.68547121     3.98560080     0.03626285     0.42411751     0.44031598
O       5.49856724     0.89998625     4.22974583     0.60205025    -0.27535959    -1.92260944
O       1.89701720     4.73689925     4.06504883    -0.57397842     1.58630516     0.23274766
O       1.95407024     1.02819521     3.89252879    -0.77751834    -1.20925763     0.99076391
O       3.77222521     2.90524221     3.14939782     0.65298485    -0.00361214     0.01059886
O       3.86472725    -1.09734878     3.15636079    -0.33922685     0.29287318     1.15456819
O      -0.00191679    -1.06909976     3.08650579     0.13078718     0.57508040     1.54167311
O       5.71767700     6.79529001     1.65897798     0.26259972     0.27741365    -0.55876289
O       5.76533200     2.79749500     1.78598899     1.06422499    -0.40956223    -0.74416752
O       1.94452700     6.56437499     1.65426000    -0.34173753     0.11429792    -0.16686286
O       1.92286301     3.04662398     1.66566101    -1.51844498    -0.18915716    -0.59928117
