# total energy = -19915.94900084 eV

CRYSTAL
PRIMVEC
        6.37538450     0.00000000     0.00000000
        3.19312695     5.98704821     0.00000000
        0.00000000     0.00000000    11.80782253
PRIMCOORD
24 1
Ti      4.20301435     3.54791923     4.38061796     0.29725589    -2.56084310     0.45157921
Ti      5.36549727     2.43912913     7.42720470    -0.29725589     2.56084310    -0.45157921
Ti      6.79924153     2.43913127     1.52324619    -1.15384442    -1.36344289     0.66602832
Ti      2.76927030     3.54791737    10.28457653     1.15384442     1.36344289    -0.66602832
Ti      2.60645112     0.55439532     1.52329356     0.29725589    -2.56084310    -0.45157921
Ti      6.96206063     5.43265327    10.28452923    -0.29725589     2.56084310     0.45157921
Ti      1.17270676     0.55439302     7.42715733     1.15384442     1.36344289     0.66602832
Ti      8.39580497     5.43265551     4.38066526    -1.15384442    -1.36344289    -0.66602832
O       3.14220379     2.10814150     6.02544148     1.77326454     2.03227911    -1.00458257
O       6.42630791     3.87890691     5.78238118    -1.77326454    -2.03227911     1.00458257
O       2.29424729     2.10816560     0.12156816     0.44009641    -1.32545174     1.81320741
O       7.27426448     3.87888286    11.68625413    -0.44009641     1.32545174    -1.81320741
O       4.82974455     0.88538278     0.12152984    -1.77326454    -2.03227911    -1.00458257
O       4.73876713     5.10166557    11.68629245     1.77326454     2.03227911     1.00458257
O       5.67770113     0.88535872     6.02547974    -0.44009641     1.32545174     1.81320741
O       3.89081051     5.10168970     5.78234286     0.44009641    -1.32545174    -1.81320741
O       2.17387326     3.64166207     3.18958745     0.67523956     3.18852443     2.96238682
O       7.39463844     2.34538634     8.61823515    -0.67523956    -3.18852443    -2.96238682
O       4.67019390     2.34533042     2.71436138     0.66531278     2.07648128     1.89429798
O       4.89831780     3.64171798     9.09346102    -0.66531278    -2.07648128    -1.89429798
O       0.57730991     0.64813793     2.71432369     0.67523956     3.18852443    -2.96238682
O       8.99120178     5.33891041     9.09349871    -0.67523956    -3.18852443     2.96238682
O       3.30175444     0.64819385     8.61827278    -0.66531278    -2.07648128     1.89429798
O       6.26675724     5.33885450     3.18954976     0.66531278     2.07648128    -1.89429798
