# total energy = -19962.22141010 eV

CRYSTAL
PRIMVEC
        5.17508468     0.00000000     0.00000000
        0.00000599     5.50739847     0.00000000
        0.00000000     0.00000000     9.26171897
PRIMCOORD
24 1
Ti      1.87569043     3.26367285     3.43620242     0.00140819     0.00046743    -0.00857026
Ti      3.29939987     2.24372610     5.82551660    -0.00140819    -0.00046743     0.00857026
Ti      4.46317320     2.24372439     1.19461960     0.00019129    -0.00041600     0.00861037
Ti      0.71191711     3.26367471     8.06709958    -0.00019129     0.00041600    -0.00861037
Ti      1.87568749     0.50997356     1.19465722     0.00140819     0.00046743     0.00857026
Ti      3.29940281     4.99742549     8.06706196    -0.00140819    -0.00046743    -0.00857026
Ti      0.71191416     0.50997516     5.82547898    -0.00019129     0.00041600     0.00861037
Ti      4.46317614     4.99742389     3.43624010     0.00019129    -0.00041600    -0.00861037
O       1.63780162     1.93929223     4.72617717     0.00711065    -0.00226566     0.00034247
O       3.53728863     3.56810672     4.53554191    -0.00711065     0.00226566    -0.00034247
O       0.94977488     1.93931925     0.09535224    -0.00712530    -0.00235693     0.00025274
O       4.22531547     3.56807970     9.16636652     0.00712530     0.00235693    -0.00025274
O       3.53728574     0.81440738     0.09531736    -0.00711065     0.00226566     0.00034247
O       1.63780456     4.69299157     9.16640139     0.00711065    -0.00226566    -0.00034247
O       4.22531253     0.81438035     4.72621204     0.00712530     0.00235693     0.00025274
O       0.94977772     4.69301859     4.53550704    -0.00712530    -0.00235693    -0.00025274
O       0.18806109     3.34978736     2.50172842    -0.00159820     0.00610663     0.00455265
O       4.98702921     2.15761159     6.75999060     0.00159820    -0.00610663    -0.00455265
O       2.77560886     2.15756223     2.12915932    -0.00151721    -0.00606446    -0.00452386
O       2.39948144     3.34983666     7.13255959     0.00151721     0.00606446     0.00452386
O       0.18805820     0.59608797     2.12913096    -0.00159820     0.00610663    -0.00455265
O       4.98703215     4.91131093     7.13258790     0.00159820    -0.00610663     0.00455265
O       2.39947850     0.59613732     6.76001897     0.00151721     0.00606446    -0.00452386
O       2.77561175     4.91126163     2.50170005    -0.00151721    -0.00606446     0.00452386
