# total energy = -39028.54638706 eV

CRYSTAL
PRIMVEC
        5.93200024     0.00000000     0.00000000
        0.00000000     9.29399984     0.00000000
        0.00000000     0.00000000     9.29399984
PRIMCOORD
46 1
Ti      4.50738100     6.98586600     6.74664798    -0.32087534    -0.50212429     0.90118433
Ti      4.51983900     6.98850998     2.47572301     1.57877825     0.19527921     0.36239018
Ti      4.47499101     2.29691301     6.97703498     2.45016066    -0.64895259    -0.52373417
Ti      4.04061899     2.39325401     2.02673400     1.35948853     1.13122745     2.12904621
Ti      1.64572601     6.82265403     7.00486298    -1.93737529     0.87227792     0.23225529
Ti      1.72486902     7.18364599     2.30329298    -2.03289078    -0.04934926    -0.58589086
Ti      1.58081601     2.47378701     6.98536100    -2.08861766    -1.38461644    -0.97860439
Ti      0.90633198     2.10777199     2.48909399     1.48901664     2.15647552    -1.90944101
Ti      2.97065699     4.50401300     4.54121098    -1.30167057     0.61628517     0.61943940
Ti      2.99697498     4.87374703     9.15651599    -1.20450289     1.15545059     0.04131790
Ti      3.11324702     0.03354301     4.81048600    -0.80332631     1.19328567    -0.09745179
Ti      2.96486699     0.20100099     0.06694801    -2.75399215    -1.88758611    -2.08902801
Ti      5.81778897     4.47859402     4.53977702     2.01733020    -0.64334707     2.22383717
Ti      5.84830599     4.66755898     9.16986898     0.45964374    -0.26784426    -0.25200703
Ti      0.06813998     9.03147501     4.91946498    -0.69305757     2.20110064     1.00852922
Ti      5.84450301     0.03366001     0.15658598     1.24860812    -1.59538604    -2.66170802
O       4.36766699     5.36448601     5.59345899     0.23485545    -0.04021593    -0.26580126
O       4.44463000     5.54196899     0.79636101     0.38125386     0.60043560     1.40405142
O       4.58723602     0.69211902     5.88896601    -0.91631605     0.06605501    -1.11620680
O       4.39619298     0.82304298     1.07285898     1.28868006     0.54208542    -0.61732544
O       1.44180501     5.24757498     5.51405298     0.49010310     1.66670153     0.52028760
O       1.88281498     6.23395402     0.71073701    -0.34741582    -3.06946225    -0.22084190
O       1.58294098     0.89866098     5.81458200     0.18257333    -0.64475038    -0.26655768
O       1.36070199     1.14248400     0.79664598     0.93262405    -0.37738486     1.59016053
O       4.68926398     8.33337501     8.29569500    -1.18902870     0.56697499     0.87959940
O       4.57935101     8.10884500     4.11389501    -0.42823050     1.15903008    -1.76592995
O       4.58954302     3.76570897     8.24688099    -1.32792231     0.68383682     0.79585134
O       4.45722902     3.84022999     3.37500302    -1.93677776    -2.52585937     0.44870498
O       1.61125598     8.37507598     8.35213598     0.41481422     0.09159610     0.29594000
O       1.44585999     8.77565299     3.88777302     1.30794303    -0.67164747    -2.69071985
O       1.53681498     3.79195902     8.41661099     0.54280456     0.34074586     0.53174495
O       1.47066502     3.80229401     3.59649799    -0.70640674    -2.36750455    -1.97394410
O       3.09826501     5.93072598     7.65186202     0.55969646    -0.16852302     0.60032401
O       3.02644100     6.22731999     3.17751798    -1.37010102    -1.55502434     1.18879550
O       3.11685400     1.56425599     8.04235102    -1.12318298     0.20191652    -0.13156905
O       3.51379002     1.32388898     3.35526698    -1.46718128    -0.10292953     0.49570373
O       5.85781499     6.00865400     7.88942800     0.84780770     0.48728799    -0.71974589
O       5.45145099     5.74817301     3.37965200     2.20038433     4.63496795    -2.83127105
O       5.87510199     1.51521799     7.91564598     0.52889540    -0.07858400     0.58418185
O       2.85378602     7.69039502     5.80257698     0.23599136    -0.40073974     1.64465148
O       2.80182002     8.39326099     1.77227398     2.20721266     0.08023465    -0.97861468
O       2.88881798     3.01337101     5.69372802     1.11553626    -0.02034078     1.72820080
O       0.12926398     7.67269002     6.00009699     1.39038060    -1.43299434     1.28085876
O       0.10044499     7.97047102     1.63416301    -1.49740281     0.32787594    -0.36388631
O       0.04135102     3.07202200     5.93159002    -0.32951322    -0.06827207     0.33597132
O       5.82504399     3.15367601     1.30439499     0.31120516    -0.46768872     1.19725134
