# total energy = -19960.70359883 eV

CRYSTAL
PRIMVEC
        7.60600008     0.00000000     0.00000000
        0.00000000     7.60600008     0.00000000
       -1.89786986    -1.89786986     4.85670466
PRIMCOORD
24 1
Ti      3.81712500     6.44956602     1.26077702     0.76150010     1.64518190     0.11345563
Ti      3.77047099     2.78940902     1.23768701     0.63952204    -1.19722949    -0.17600725
Ti      0.04587501     6.74851201     1.26557100    -0.71334050    -0.88573791    -0.84872995
Ti     -0.00150599     2.92738198     1.13339803    -0.16815767     0.76132501    -0.45230221
Ti      5.68448224     2.99554223     3.55732379    -1.12105307    -0.26897400     0.31052330
Ti      5.73601024    -0.87734080     3.67074981    -0.47573577     0.34140997    -0.15362630
Ti      1.78421423     2.79391522     3.59767779     1.26221466    -0.09332799    -0.14287780
Ti      1.91644721    -0.98951177     3.62055280     0.39208078    -0.02205056     2.06401553
O       3.78783700     4.69150399     0.84950898     0.00215767    -1.26790014    -0.23861235
O       3.79640099     0.83162798     0.80884901     0.01919972     0.07725011    -0.44253150
O       0.15190700     4.86002102     0.60549699    -0.31992506     0.50821215     2.36188206
O      -0.02055499     1.08520702     0.71103901     0.28487602    -1.62205688     1.68268840
O       5.72953322     4.84590622     4.08614083     0.17617874     0.20536000     0.00856435
O       5.72673625     1.13189521     4.12345380    -0.29109295    -1.41052212    -1.96996403
O       1.86400623     4.54940323     4.16123579    -0.48220415     1.95968630    -0.77337115
O       1.90223621     0.87112122     4.06531580    -0.11625710     0.24510901    -0.12425298
O       3.67891623     2.94289323     3.30001982     1.21925588    -0.41288795    -0.70339701
O       3.86033523    -1.03330780     3.25571980    -1.22418392     0.27496827     0.16360913
O      -0.08919076     2.88456921     2.99761682     1.42770172     0.25241223     2.05954361
O      -0.02475078    -0.82558779     3.24836979     1.79579384    -0.09604719     0.04227512
O       5.78376198     6.52473300     1.79846799    -0.22505774     0.14975293    -2.40849155
O       5.63950000     2.76699503     1.61660401     0.13866839     0.53566049    -0.56704364
O       1.93567302     6.48819501     1.70755100    -0.76134507     0.42942504    -0.21734854
O       1.97004499     2.82483500     1.58184902    -2.22079684    -0.10901867     0.41199887
