# total energy = -4975.04460705 eV

CRYSTAL
PRIMVEC
        4.85073901     0.00000000     0.00000000
        0.00000000     2.53346041     0.00000000
        0.00000000    -0.00013305     6.75589345
PRIMCOORD
6 1
Ti      2.42536927     1.26666333     3.37794673     0.00000000     0.00000000     0.00000000
Ti      0.00000000     0.00000000     0.00000000     0.00000000     0.00000000     0.00000000
O       2.42536927     0.49370807     1.31662415     0.00000000     0.05210471     2.40816271
O       2.42536927     2.03961865     5.43926936     0.00000000    -0.05210471    -2.40816271
O       0.00000000     0.77290278     4.69457224     0.00000000    -0.05208106     2.40722168
O       0.00000000     1.76042395     2.06132121     0.00000000     0.05208106    -2.40722168
