# total energy = -4986.69853492 eV

CRYSTAL
PRIMVEC
        3.81977145     0.00000000     0.00000000
        0.00000000     3.59100526     0.00000000
        0.00000000    -0.00007072     5.10720742
PRIMCOORD
6 1
Ti      1.90988556     1.79546738     2.55360382     0.00000000     0.00000000     0.00000000
Ti      0.00000000     0.00000000     0.00000000     0.00000000     0.00000000     0.00000000
O       1.90988556     0.69982029     0.99531956     0.00000000    -0.13912219     0.65511681
O       1.90988556     2.89111446     4.11188813     0.00000000     0.13912219    -0.65511681
O       0.00000000     1.09561884     3.54892437    -0.00000000     0.13893270     0.65591771
O       0.00000000     2.49531591     1.55828326    -0.00000000    -0.13893270    -0.65591771
