# total energy = -4984.66263324 eV

CRYSTAL
PRIMVEC
        4.22957404     0.00000000     0.00000000
        1.81158831     3.82196865     0.00000000
       -3.02062122    -1.91100966     5.54704350
PRIMCOORD
6 1
Ti      1.35858439     2.86662359     1.38676082    -0.00072814     0.00072814     0.00000000
Ti      1.66195703    -0.95566437     4.16028234     0.00072814    -0.00072814     0.00000000
O       0.45294101     0.95548714     0.90356799    -0.00056179    -0.00083767    -1.91619556
O       2.56760026     0.95547193     4.64347522     0.00056179     0.00083767     1.91619556
O      -0.45290290    -0.95546308     3.67708957    -0.00083767    -0.00056179    -1.91619556
O       3.47344410     2.86642211     1.86995364     0.00083767     0.00056179     1.91619556
