# total energy = -19957.44789774 eV

CRYSTAL
PRIMVEC
        7.60600008     0.00000000     0.00000000
        0.00000000     7.60600008     0.00000000
       -1.89786986    -1.89786986     4.85670466
PRIMCOORD
24 1
Ti      3.64747601     6.54373401     1.34910602     0.80593624     1.08165553    -0.48877178
Ti      3.87824402     2.90601698     1.31817598    -2.72708966    -0.55844767    -1.90244504
Ti     -0.05272701     6.61428900     1.10450299    -0.49471514     0.30293109     1.13263333
Ti      0.12835401     2.94199098     1.08885199    -0.43418827    -0.67420598     2.15892887
Ti      5.77030421     2.85696225     3.48935483     1.66307447     1.35315436     2.29149037
Ti      5.71875922    -0.95979878     3.70969784     2.02604161    -0.98893817    -0.26569147
Ti      1.85260621     2.96032824     3.64739981    -1.28513220    -0.59311747     1.08070114
Ti      1.85406224    -0.96838177     3.70965884    -1.53886495     0.51405344    -0.03431961
O       3.70142198     4.73283998     0.83120098     0.58735948    -0.55918481    -1.37025657
O       3.51973601     0.85539698     0.78428000     1.14716598     2.24075272     1.56322333
O       0.04629602     4.75140500     0.78644503    -0.97212470     0.49035044    -1.14807178
O       0.09472199     0.95404901     0.85273098    -0.76645899    -0.49249371    -1.29989522
O      -1.35402578     4.73671621     4.04922881    -1.83390223    -0.49500362    -0.23514367
O      -1.57057479     0.95741225     4.18799882    -1.61737207    -0.44152440    -4.08029801
O       1.51455821     4.82445723     4.29324683     0.83656914    -3.08829791    -2.12436243
O       1.60720323     0.93463725     3.96549381     2.44217918     0.14706664     0.73838691
O       3.89148224     3.19442620     3.40382884    -1.51048844    -1.32266903    -1.68594573
O       3.91284925    -1.27986476     3.38478380    -1.43256368     0.97306803    -0.31392050
O       0.02464823     2.61867723     3.20313080     0.53582221     1.41202467    -1.13065075
O       0.00622625    -1.07360280     3.01412080    -1.13655375     1.01292838     1.23729398
O       5.62929598     6.61963898     1.46310498     0.08648680     0.33619012     0.82902681
O       5.63575798     3.09935300     1.47954699     1.49481242    -1.17136650     1.08898112
O       1.80083601     6.36153400     1.70177101     2.30577363     0.65959285     0.58646345
O       1.88843802     2.98040099     1.29789002     1.81823212    -0.13851849     3.37264325
