# total energy = -19961.13341467 eV

CRYSTAL
PRIMVEC
        7.60600008     0.00000000     0.00000000
        0.00000000     7.60600008     0.00000000
       -1.89786986    -1.89786986     4.85670466
PRIMCOORD
24 1
Ti      3.86622201     6.71831498     1.15560601    -0.20128249    -1.76551138     0.23245044
Ti      3.83467199     2.75910399     1.15176302    -0.96419207     1.56302587     1.58439123
Ti     -0.03127797     6.61497000     1.22651200    -0.01802241     0.62884810    -1.09163579
Ti     -0.08746601     2.86714701     1.30271998     1.28406596    -0.58221136     0.02060817
Ti      5.68698223     2.80724721     3.71027083    -0.06244852     0.51797258    -0.31402103
Ti      5.69544621    -0.92345478     3.63409381    -0.10244076    -0.46273086     0.78277290
Ti      1.98537821     2.82803922     3.68810079    -0.69151388     0.08652665    -1.34492888
Ti      1.96616321    -0.94335179     3.62269379     0.10700113    -0.40268016    -1.93459052
O       3.91042599     4.79230802     0.69342000    -0.26461469    -1.36903966     2.16273128
O       3.87657198     0.93122501     0.68001600    -0.11026900     0.11599331     0.46669319
O      -0.25651200     4.70358199     0.80987001     0.77017475     1.43613545     0.23125847
O      -0.06174398     1.04320998     0.72486102     0.23301454    -1.52120815     0.61502045
O       5.47144024     4.77239323     3.98904680     0.57180481     0.01481573     0.87293638
O       5.66993923     0.96908325     4.11427279     0.39263819     0.14921403    -0.35908580
O       2.06368925     4.65410725     4.03949682    -0.24709056     2.91958668    -0.57245402
O       1.84036121     0.88078024     4.06345082    -0.21716420     0.03877174    -0.24059364
O       3.74740621     2.70462921     3.14198082     1.13103770    -0.13865425     0.31175460
O       3.88076523    -0.73547076     3.12068080    -1.86648198    -0.47889411     0.40911203
O      -0.07643378     2.94657820     3.30847882     0.39683449    -0.23716507     0.00978794
O      -0.07098976    -1.03234475     3.12625981     1.65740056    -0.03658475     0.85089894
O       5.72127699     6.76205498     1.59353998    -0.32956233     0.03707352    -0.28886098
O       5.69371702     2.81479100     1.72920700    -1.24626841    -0.24235176    -0.82380618
O       1.92041800     6.74287299     1.59757299    -0.19239855    -0.41267327     0.06252411
O       1.87438202     2.81769402     1.74222201    -0.03022256     0.14174111    -1.64296330
