# total energy = -4988.38701280 eV

CRYSTAL
PRIMVEC
        4.08966381     0.00000000     0.00000000
        0.80982591     4.00868209     0.00000000
       -2.44978212    -2.00437153     5.24587791
PRIMCOORD
6 1
Ti      0.60722846     3.00666486     1.31146962    -0.00127450     0.00127450     0.00000000
Ti      1.84247915    -1.00235430     3.93440846     0.00127450    -0.00127450    -0.00000000
O       0.20249933     1.00216466     0.85451071    -0.00052579    -0.00128607    -1.05019216
O       2.24720816     1.00214580     4.39136743     0.00052579     0.00128607     1.05019216
O      -0.20247249    -1.00214270     3.47744955    -0.00128607    -0.00052579    -1.05019216
O       2.65217985     3.00645306     1.76842853     0.00128607     0.00052579     1.05019216
