# total energy = -19952.51456660 eV

CRYSTAL
PRIMVEC
        5.89647621     0.00000000     0.00000000
        0.00002935     5.67795424     0.00000000
        0.00000000     0.00000000    10.07604291
PRIMCOORD
24 1
Ti      2.13720645     3.36475037     3.73814014     0.08770190    -0.42112603     0.28427207
Ti      3.75929911     2.31320375     6.33790311    -0.08770190     0.42112603    -0.28427207
Ti      5.08534179     2.31320570     1.29984124     0.08837630     0.42128029    -0.28409749
Ti      0.81116383     3.36474870     8.77620219    -0.08837630    -0.42128029     0.28409749
Ti      2.13719183     0.52577337     1.29988166     0.08770190    -0.42112603    -0.28427207
Ti      3.75931379     5.15218093     8.77616177    -0.08770190     0.42112603     0.28427207
Ti      0.81114915     0.52577130     6.33786275    -0.08837630    -0.42128029    -0.28409749
Ti      5.08535640     5.15218305     3.73818057     0.08837630     0.42128029     0.28409749
O       1.86628230     1.99930414     5.14172770     0.91335260     0.83796963    -0.13539280
O       4.03022331     3.67864998     4.93431555    -0.91335260    -0.83796963     0.13539280
O       1.08201102     1.99932710     0.10373851    -0.91310654     0.83812980    -0.13598544
O       4.81449465     3.67862708     9.97230451     0.91310654    -0.83812980     0.13598544
O       4.03020864     0.83967281     0.10370584    -0.91335260    -0.83796963    -0.13539280
O       1.86629697     4.83828132     9.97233718     0.91335260     0.83796963     0.13539280
O       4.81447998     0.83964990     5.14176043     0.91310654    -0.83812980    -0.13598544
O       1.08202553     4.83830428     4.93428289    -0.91310654     0.83812980     0.13598544
O       0.21425057     3.45365365     2.72179063    -0.01186642    -0.13604252     0.17849042
O       5.68225505     2.22430053     7.35425262     0.01186642     0.13604252    -0.17849042
O       3.16249390     2.22424768     2.31626303    -0.01188030     0.13615333    -0.17874342
O       2.73401166     3.45370650     7.75978011     0.01188030    -0.13615333     0.17874342
O       0.21423589     0.61467648     2.31623082    -0.01186642    -0.13604252    -0.17849042
O       5.68226966     5.06327770     7.75981226     0.01186642     0.13604252     0.17849042
O       2.73399705     0.61472932     7.35428478     0.01188030    -0.13615333    -0.17874342
O       3.16250857     5.06322480     2.72175848    -0.01188030     0.13615333     0.17874342
