# total energy = -19073.41731945 eV

CRYSTAL
PRIMVEC
        7.60600008     0.00000000     0.00000000
        0.00000000     7.60600008     0.00000000
       -1.89786986    -1.89786986     4.85670466
PRIMCOORD
22 1
Ti      3.84765900     6.58778098     1.30482600     0.71682897     0.81333125     0.03338733
Ti      3.54775902     2.63137298     1.21924899     1.63809517     0.69160695     1.49451700
Ti      0.09886899     6.89097700     1.04048302    -1.32796602    -3.20858727    -0.56553595
Ti     -0.19027198     2.74163802     1.03711200    -2.58563548     1.37509821     1.20261441
Ti      5.78104920     2.86431623     3.69450680    -1.13761433     1.60713650    -1.60512307
Ti     -1.32322676    -0.69118878     3.67599480    -0.73161487    -2.62168185    -0.45722176
Ti      1.83743624     2.84832422     3.89901380     1.28298121     0.72352001    -1.43147353
Ti      1.76173023    -0.95434180     3.65867182     0.02874546     0.15561042    -0.04816912
O       3.80919702     4.74773802     0.89055102    -0.62467494    -0.39541756     0.91829812
O       4.08830802     0.95231802     0.68917902    -0.94540604    -0.28565584     1.95147908
O      -0.22496399     4.74408701     0.66350202     0.89437836    -0.29862603     0.42278130
O       7.01715000     0.80152599     0.45265801     1.07982439     2.15917261     0.93530186
O       5.99534921     4.82908124     3.92577879     0.61433833    -0.44792156     0.49089859
O       5.26303722     0.84587724     3.92062381     1.67275160     1.09537263     0.30433157
O       2.12676421     4.78405921     4.32767082    -0.93324086    -0.23205552    -2.29090699
O       1.91589020     0.99408524     4.18012779    -0.36446764    -1.14465067    -1.37905412
O       3.77018624     2.98361024     3.26884879    -1.84918693    -0.47384857    -1.14818105
O       0.06496524     2.92144821     3.11862082     0.51055829    -0.57814156     0.85089637
O       5.81849400     6.56054301     1.98755001    -0.35749017     0.63139272    -0.95267866
O       5.65698698     2.70737098     1.65581001     0.28714528     0.40919945     0.34289324
O       1.87474699     6.69152999     1.61289998     1.16138238     0.32884653     0.91632737
O       1.68633999     2.54148699     1.23787201     0.97026810    -0.30370010     0.01461827
