# total energy = -4981.18931118 eV

CRYSTAL
PRIMVEC
        4.28036880     0.00000000     0.00000000
        0.00000000     2.54391944     0.00000000
        0.00000000    -0.00010155     5.79975929
PRIMCOORD
6 1
Ti      2.14018440     1.27190878     2.89987938     0.00000000     0.00000000     0.00000000
Ti      0.00000000     0.00000000     0.00000000     0.00000000     0.00000000     0.00000000
O       2.14018440     0.49575258     1.13028757     0.00000000    -0.49451562     1.53905212
O       2.14018440     2.04806499     4.66947119     0.00000000     0.49451562    -1.53905212
O       0.00000000     0.77611603     4.03016824     0.00000000     0.49388416     1.53639026
O       0.00000000     1.76770153     1.76959053     0.00000000    -0.49388416    -1.53639026
