# total energy = -19960.83346645 eV

CRYSTAL
PRIMVEC
        7.60600008     0.00000000     0.00000000
        0.00000000     7.60600008     0.00000000
       -1.89786986    -1.89786986     4.85670466
PRIMCOORD
24 1
Ti      3.73806698     6.63560299     1.09008302     1.05901567     2.30178559     1.98816128
Ti      3.88118000     2.99030698     1.15074102    -0.32092367    -2.46802032     0.12982096
Ti     -0.03312300     6.66207000     1.19494197    -1.14161676     0.66541537     0.36854875
Ti      0.02631101     2.92017602     1.26463599    -0.58965316    -0.83098368    -0.13909930
Ti      5.73732424     2.76958821     3.73236382    -1.50149061     0.78767112    -0.71038938
Ti      5.72464124    -1.01113279     3.69032080    -1.04240068     0.17388300    -0.64832190
Ti      1.91881322     2.88996021     3.62633782     1.04510831    -1.22516248    -0.79305346
Ti      1.85366520    -0.99643076     3.55386583     0.91223854     1.29241536     1.26573450
O       3.81622201     4.81086997     0.77927399    -0.10517693     0.39807274    -0.45813887
O       3.83034099     1.02042498     0.63424698    -0.10120123    -1.13816120     0.78285132
O      -0.12896399     4.78404497     0.85963998     0.50514740    -1.35447025    -0.11509110
O      -0.30497501     0.93424100     0.84728199     1.12007271     0.73823804    -0.06653015
O       5.75015520     4.72182124     4.12075981    -0.35859241     0.01913853     0.27457515
O       5.86808224     0.96918824     4.12224881     0.01386828    -1.27018020     0.83453360
O       2.00995320     4.81273220     3.95633079    -0.19215198    -1.80736124     0.29215996
O       1.79500924     0.99514724     4.08926382     0.16103725     0.50847569    -0.76300394
O       3.88478724     2.68150522     3.35357779    -0.83454440     0.53443510    -0.53122919
O       3.77014623    -0.98738876     3.07649180    -0.01573027     0.33816807     0.62660790
O      -0.03494676     2.77585721     3.31750981     1.34866932     0.71519375    -1.40752292
O      -0.08013977    -1.25289175     3.29830280     1.25315795     1.04333631    -0.56689426
O       5.69451100     6.66709602     1.74157302    -0.08603069    -0.09535094    -0.77581678
O       5.64410602     2.99561500     1.57454701     1.77520804    -0.21079043     0.86119647
O       1.88983299     6.57110999     1.59374101    -0.91946668     0.63933589    -0.76369351
O       2.00775400     2.87282000     1.67346098    -1.98454399     0.24491566     0.31459490
