# total energy = -19072.23222275 eV

CRYSTAL
PRIMVEC
        7.60600008     0.00000000     0.00000000
        0.00000000     7.60600008     0.00000000
       -1.89786986    -1.89786986     4.85670466
PRIMCOORD
22 1
Ti      4.17086898     6.53931898     1.11862202     0.58080882     2.63343822     0.04447727
Ti      3.43789198     2.74229700     1.15669601    -0.95428175    -0.84834043     0.89240658
Ti      0.19481602     6.65157801     1.01615198    -0.74665918    -1.11015853     0.69235591
Ti     -0.25961700     2.81549603     1.20911800    -0.67854394     1.82052478    -2.07326302
Ti      5.43585820     2.92953923     3.50085481    -1.33713149    -1.04198674     0.64691165
Ti     -1.35052480    -0.54105675     3.93371079    -0.06398475     0.47818037    -0.60187953
Ti      1.79473523     2.74332625     3.91605379     2.40840439     0.08021279    -0.26832300
Ti      2.03719821    -0.96905780     3.77986182    -0.85886267     0.48788192    -1.08476400
O       3.33743000     4.89741601     0.81621601     0.38664058    -1.12992338     1.73420690
O       3.77420899     0.82078402     0.79101802    -0.85167978    -0.24471512     2.54743376
O      -0.25757898     4.66761301     0.93187701     0.80121055     2.39461376    -0.77508119
O      -0.09698602     0.98263400     0.83792498     0.51731463    -1.88999498    -0.37984130
O       5.66338124     4.82867123     3.94508080     0.78976708    -0.30632057     0.46230586
O       5.12771120     0.98901820     4.10456683     0.95569046    -0.93978381    -1.68001599
O       2.36222920     4.85827420     4.07464281     0.11694847    -2.66124368     0.32799704
O       2.09551222     0.85346220     4.28207183     0.88729703     1.28459458    -1.94657495
O       3.54464624     2.67814722     3.24756084    -0.22139675     1.10287537    -1.05156847
O       0.40837524     2.69541221     2.86949179    -1.66216070     0.23869796     0.99824711
O       6.01634702     6.76937699     1.84132500    -1.25376087    -0.33071392     1.06882855
O       5.40541702     2.64156398     1.63282101     1.29229015     0.86963766     0.85360862
O       1.92178100     6.68825602     1.95419798    -0.42945795     0.17882775    -1.26596873
O       1.65411299     2.75638597     0.30008298     0.32154819    -1.06630373     0.85850066
