# total energy = -19920.44969963 eV

CRYSTAL
PRIMVEC
        6.30751809     0.00000000     0.00000000
        2.58199366     6.19670134     0.00000000
        0.00000000     0.00000000    11.53107668
PRIMCOORD
24 1
Ti      3.81625904     3.67215959     4.27794720     0.03858379    -2.40190541     0.65597762
Ti      5.07325281     2.52454192     7.25312961    -0.03858379     2.40190541    -0.65597762
Ti      6.49173447     2.52454403     1.48754510    -0.62015108    -1.08400783     0.27599543
Ti      2.39777742     3.67215773    10.04353177     0.62015108     1.08400783    -0.27599543
Ti      2.52526233     0.57380890     1.48759133     0.03858379    -2.40190541    -0.65597762
Ti      6.36424955     5.62289280    10.04348555    -0.03858379     2.40190541     0.65597762
Ti      1.10678057     0.57380662     7.25308332     0.62015108     1.08400783     0.27599543
Ti      7.78273131     5.62289508     4.27799343    -0.62015108    -1.08400783    -0.27599543
O       2.90553314     2.18196395     5.88422019     1.82760251     2.12933058    -0.85551150
O       5.98397864     4.01473758     5.64685662    -1.82760251    -2.12933058     0.85551150
O       2.06660094     2.18198899     0.11871890    -0.16152962    -0.78286572     1.55433631
O       6.82291099     4.01471264    11.41235753     0.16152962     0.78286572    -1.55433631
O       4.69298191     0.91638676     0.11868147    -1.82760251    -2.12933058    -0.85551150
O       4.19652994     5.28031475    11.41239497     1.82760251     2.12933058     0.85551150
O       5.53191419     0.91636177     5.88425756     0.16152962     0.78286572     1.55433631
O       3.35759754     5.28033983     5.64681919    -0.16152962    -0.78286572    -1.55433631
O       1.79968166     3.76918521     3.11483151     0.62628908     2.63621476     2.50105156
O       7.08983013     2.42751632     8.41624530    -0.62628908    -2.63621476    -2.50105156
O       4.39439299     2.42745865     2.65074357     0.76675107     1.99944431     1.40319061
O       4.49511879     3.76924288     8.88033305    -0.76675107    -1.99944431    -1.40319061
O       0.50868491     0.67083433     2.65070671     0.62628908     2.63621476    -2.50105156
O       8.38082693     5.52586718     8.88036985    -0.62628908    -2.63621476     2.50105156
O       3.20412206     0.67089206     8.41628204    -0.76675107    -1.99944431     1.40319061
O       5.68538973     5.52580947     3.11479470     0.76675107     1.99944431    -1.40319061
