# total energy = -19517.56200293 eV

CRYSTAL
PRIMVEC
        5.17600016     0.00000000     0.00000000
        0.00000000     5.50899976     0.00000000
        0.00000000     0.00000000     9.26300011
PRIMCOORD
23 1
Ti      1.92725402     3.20960697     3.39166501    -1.51860928    -0.42501637     2.09527733
Ti      3.35768802     2.28747000     5.88489399     0.16811627    -0.29743921    -1.95177244
Ti      4.36419601     2.09026300     1.48138102     1.55102884    -0.95377498    -1.33000439
Ti      0.84511702     3.40556702     7.73391900     0.23084273    -0.65111155     1.88011423
Ti      1.90564798     0.22924900     1.37512402     0.51691997     0.75606402    -2.63255530
Ti      3.32989500     5.22625999     7.87437100    -1.25849170     1.11404527     1.10876680
Ti      0.71855100     0.57440402     5.90455102     0.43147189     0.29513601    -3.15397985
Ti      4.44821999     4.92274402     3.44133300     1.03757884     0.22759954     2.23056240
O       1.67969501     2.02670701     4.82789900    -0.62062571    -0.57393137     0.09386458
O       3.54464899     3.51000799     4.45868600     0.36213436     0.59504425    -0.00457708
O       0.34258099     2.54137702     0.09355102    -0.50678159     0.54523117    -0.33555891
O       3.49662700     0.73086300     0.19675699     0.16356027     0.72031462     0.07847781
O       1.82714802     4.69565401     8.93775099    -0.84248988    -0.29758062     0.97700491
O       4.14096100     0.70165300     4.93728301     0.22205726     0.32700202    -1.17185552
O       0.89163297     4.79247598     4.44313602     0.91997756    -0.05176738     0.27805308
O       0.14280298     3.31939501     2.62718401    -0.02716629    -0.31036261    -0.60316226
O       5.03393401     1.99130399     6.85320602    -0.74456604     1.18450509     0.24848127
O       2.55954902     1.83878802     2.28300501     0.44022188     0.14387153    -0.68971719
O       2.51842200     3.69484299     6.90281602     0.46840580    -0.39525481     0.22842769
O       0.17895499     0.52641098     2.01383700    -0.70134629     0.40111024     0.41118485
O       5.02221300     4.84692002     7.02625503    -0.37941449    -1.36663363     1.40722956
O       2.38365701     0.97851298     6.92422399    -0.46854516    -0.38833108     0.68832365
O       2.83836500     4.57036399     2.31406100     0.55572101    -0.59872016     0.14741477
