# total energy = -19938.91101185 eV

CRYSTAL
PRIMVEC
        5.57512703     0.00000000     0.00000000
        2.79231604     5.23553588     0.00000000
        0.00000000     0.00000000    10.32566908
PRIMCOORD
24 1
Ti      3.67543933     3.10257372     3.83074960     2.18281314    -3.94322396     0.91298416
Ti      4.69200389     2.13296230     6.49491959    -2.18281314     3.94322396    -0.91298416
Ti      5.94578025     2.13296416     1.33204374    -4.82721687    -0.03115793     1.20701768
Ti      2.42166315     3.10257209     8.99362550     4.82721687     0.03115793    -1.20701768
Ti      2.27928152     0.48480595     1.33208516     2.18281314    -3.94322396    -0.91298416
Ti      6.08816180     4.75073026     8.99358414    -2.18281314     3.94322396     0.91298416
Ti      1.02550507     0.48480394     6.49487817     4.82721687     0.03115793     1.20701768
Ti      7.34193824     4.75073222     3.83079096    -4.82721687    -0.03115793    -1.20701768
O       2.74778491     1.84352123     5.26910992     1.06155978     1.77604673    -1.29631727
O       5.61965838     3.39201483     5.05655927    -1.06155978    -1.77604673     1.29631727
O       2.00626646     1.84354230     0.10630856     1.27935287    -1.03104489     0.64252226
O       6.36117689     3.39199379    10.21936030    -1.27935287     1.03104489    -0.64252226
O       4.22350047     0.77424686     0.10627504    -1.06155978    -1.77604673    -1.29631727
O       4.14394280     4.46128914    10.21939381     1.06155978     1.77604673     1.29631727
O       4.96501898     0.77422583     5.26914337    -1.27935287     1.03104489     0.64252226
O       3.40242425     4.46131024     5.05652576     1.27935287    -1.03104489    -0.64252226
O       1.90100214     3.18454967     2.78922082     0.62962072     1.26019274     1.27164521
O       6.46644115     2.05098638     7.53644831    -0.62962072    -1.26019274    -1.27164521
O       4.08397709     2.05093748     2.37364657     1.51478862     0.63846352    -0.09041725
O       4.28346619     3.18459857     7.95202240    -1.51478862    -0.63846352     0.09041725
O       0.50484423     0.56678171     2.37361361     0.62962072     1.26019274    -1.27164521
O       7.86259904     4.66875429     7.95205536    -0.62962072    -1.26019274     1.27164521
O       2.88730828     0.56683061     7.53648121    -1.51478862    -0.63846352    -0.09041725
O       5.48013499     4.66870540     2.78918786     1.51478862     0.63846352     0.09041725
