# total energy = -4983.69372712 eV

CRYSTAL
PRIMVEC
        4.13276995     0.00000000     0.00000000
        0.00000000     2.77518465     0.00000000
        0.00000000    -0.00008894     5.50631915
PRIMCOORD
6 1
Ti      2.06638497     1.38754780     2.75315947     0.00000000     0.00000000     0.00000000
Ti      0.00000000     0.00000000     0.00000000     0.00000000     0.00000000     0.00000000
O       2.06638497     0.54082527     1.07310049    -0.00000000    -0.82164877     1.18688002
O       2.06638497     2.23427038     4.43321846    -0.00000000     0.82164877    -1.18688002
O       0.00000000     0.84668726     3.82626101     0.00000000     0.82239593     1.18703995
O       0.00000000     1.92840834     1.68005788     0.00000000    -0.82239593    -1.18703995
