# total energy = -19072.96171510 eV

CRYSTAL
PRIMVEC
        5.17600016     0.00000000     0.00000000
        0.00000000     5.50899976     0.00000000
        0.00000000     0.00000000     9.26300011
PRIMCOORD
22 1
Ti      1.79141099     3.23888101     3.26500299    -0.54083535     2.30867949     0.07120416
Ti      3.41257402     2.26805200     6.10612602    -1.52563893     1.37155318    -1.48357515
Ti      4.51659398     2.11006603     1.25955700     0.11040244     1.28858005    -0.96164333
Ti      0.89500198     3.09458400     7.94562498     0.40756371     0.77994880     1.60458031
Ti      1.88226099     0.52559700     1.29845698    -1.43215050    -0.15146503    -1.91225946
Ti      3.30812798     5.05793198     8.10742802    -1.12765258     0.00540780     1.80210359
Ti      1.48036299     0.24680800     5.87284002    -1.64020502    -0.96128055    -1.12667813
Ti      4.21555398     5.03628900     3.41333799     0.80508855    -1.53929458     1.16500610
O       3.26953302     3.55663199     4.34360001     0.36319931    -0.91275379     1.53940488
O       0.90492501     1.81895297     0.15640199    -0.88705560     1.12326911    -0.59646093
O       4.34029402     3.66003799     8.69217999     0.58612792    -0.66265349     0.08910084
O       3.42573497     0.80814600     0.34583802     1.96201366     0.21978158    -1.65050049
O       1.73081199     4.71558399     9.00531100    -0.82683546    -0.99496870     0.47177447
O       2.97194299     0.80875900     4.95307302     0.92131865     0.04150662    -1.39602160
O       0.77208099     4.61107799     4.45930398    -0.74506406     0.96842102     0.58197739
O       5.12128302     3.57486199     2.44799798     0.20768119    -1.38625295    -0.99308305
O       5.11643697     2.27080198     6.54844200     1.59722978    -1.06669556    -0.46871588
O       2.66071099     2.01175098     2.17328800     0.30669390     0.44674605     1.02732579
O       2.15675301     4.20894101     6.69693199     0.64421070    -2.26980439    -0.14699311
O       0.05394697     0.69734999     2.17001800     0.34158249    -0.21674845     1.56334494
O       2.41215702     1.12890499     7.34343101     0.29204323     2.70700317    -0.77450012
O       2.62967702     4.70954899     2.26889202     0.18028171    -1.09897912     1.59460880
