# total energy = -4983.11659627 eV

CRYSTAL
PRIMVEC
        2.81612594     0.00000000     0.00000000
        1.49846585     4.15021563     0.00000000
       -0.00000974    -0.00005847     4.48370841
PRIMCOORD
6 1
Ti      2.15729102     2.07507853     2.24185420     0.00000000     0.00000000     0.00000000
Ti      0.00000000     0.00000000     0.00000000     0.00000000     0.00000000     0.00000000
O       1.70008997     0.80880450     0.87380874    -6.35989085     2.81964786     3.48101992
O       2.61449207     3.34135257     3.60989971     6.35989085    -2.81964786    -3.48101992
O       0.45719696     1.26625040     3.11566384     6.35694437    -2.81656563     3.47664004
O       1.04125924     2.88390665     1.36804462    -6.35694437     2.81656563    -3.47664004
