# total energy = -19960.39018138 eV

CRYSTAL
PRIMVEC
        7.60600008     0.00000000     0.00000000
        0.00000000     7.60600008     0.00000000
       -1.89786986    -1.89786986     4.85670466
PRIMCOORD
24 1
Ti      3.82230803     6.51099000     1.19938601    -1.03548570     1.23739014     1.23469999
Ti      3.79144202     2.85340401     1.23105202     0.16241588    -0.14229621    -0.06024971
Ti     -0.01429498     6.71356599     1.23757699     1.36048843     0.67173463    -0.73911324
Ti     -0.04409200     2.94774001     1.20201898     0.20897060    -1.55773197     0.64563587
Ti      5.70003121     2.87605121     3.68864881     1.09386596     0.23141968    -0.39694865
Ti      5.76870921    -0.94522476     3.61334080    -0.92474079    -0.19474957     0.59272049
Ti      1.93421021     2.85425323     3.64535481    -0.66505182    -0.66345593    -0.94847002
Ti      1.89884022    -1.02386379     3.74252784     0.51707243     0.57322381    -2.64331049
O       3.59608200     4.76302198     0.68166100     0.70812295    -0.46342198     1.66659432
O       3.67924998     0.85319603     0.66329601     0.34965242     0.48089777     2.78032771
O       0.04852899     4.80670598     0.79091700    -0.13276307    -0.55408168    -0.60420998
O      -0.04399701     1.01549998     0.86904801     0.43242860    -0.64484602    -1.35835441
O       5.78355221     4.72181225     3.81487282     0.23989815     0.76781165     1.50390127
O       5.74458423     0.88419020     3.91584481    -0.51541844     0.82631892     1.24617406
O       1.82130220     4.68167225     4.04054580     0.05963959     0.33995524    -0.17659834
O       1.77739621     0.92315924     4.22303882     0.86380974     0.09992185    -1.60366397
O       3.86688920     3.06285422     3.24500581    -0.85356106    -1.25650527     0.10124905
O       3.84513721    -1.04359479     3.26695582    -1.02480430     0.07804458    -0.80180293
O      -0.08554378     2.58897922     3.22482384     1.81177479     1.13812212    -0.95850247
O       0.00516821    -0.99789579     3.12082781     0.25747088     0.05195739     0.93946062
O       5.72789203     6.64899599     1.53893698    -1.45821224    -0.13597387     0.18665984
O       5.77299798     2.95627898     1.53638899    -1.64926919     0.00345016    -0.07179911
O       1.84105501     6.70552900     1.59519402     1.51610759    -0.15370857     0.21063513
O       2.00083998     3.02087199     1.74313198    -1.32241115    -0.73347635    -0.74503501
