# total energy = -4964.79111585 eV

CRYSTAL
PRIMVEC
        5.57066146     0.00000000     0.00000000
       -0.00000770     2.68217016     0.00000000
       -2.78536194    -1.34116002     6.00139542
PRIMCOORD
6 1
Ti     -0.00023799     2.01171656     1.50034854    -0.01309078    -0.01556521    24.95089525
Ti      2.78552975    -0.67070658     4.50104614     0.01309078     0.01556521   -24.95089525
O       0.00005928     0.67052968     0.97757813     0.01130694     0.01474682   -19.09167036
O       2.78523231     0.67048018     5.02381660    -0.01130694    -0.01474682    19.09167036
O      -0.00002276    -0.67056017     3.97827573    -0.00167070    -0.00037487    -1.90202621
O       2.78531429     2.01157003     2.02311901     0.00167070     0.00037487     1.90202621
