# total energy = -19518.73952467 eV

CRYSTAL
PRIMVEC
        7.60600008     0.00000000     0.00000000
        0.00000000     7.60600008     0.00000000
       -1.89786986    -1.89786986     4.85670466
PRIMCOORD
23 1
Ti      3.91638098     6.64042999     1.20892400    -0.26441106    -0.00320822     0.20177357
Ti      3.80426298     2.89684602     1.26067097    -0.35601667    -0.18235505    -0.34572969
Ti      0.08934899     6.62530298     1.26971297    -0.15445908    -1.14255882    -1.08329924
Ti      0.01711597     2.76549603     1.05549202    -0.26285580     1.72939508     0.31723877
Ti      5.49643122     2.83854524     3.64898480     0.75593109     0.31641421     0.93147374
Ti      5.64510023    -1.02219275     3.61078583    -0.12315794     0.05187460     0.01794965
Ti      1.90706421     2.90410120     3.60515982     0.02760415    -1.14085932     1.30037524
Ti      1.85150822    -0.94510575     3.64004880     0.56684978     0.84175429     0.52218662
O       3.94940799     4.69563898     0.81918501    -0.36375518     1.11771604     0.38007244
O       4.09150901     1.01773898     0.73344099    -0.42860537    -0.21480109     0.27526986
O       0.17585401     4.66866301     0.68541302    -0.09409907     1.09522788     1.01693030
O      -0.20951699     0.92648797     0.70976502     0.48013955    -0.62220077     0.77422553
O       5.66832921     4.67692722     4.15720579     0.02742083     1.45197089    -0.68770684
O       5.68184122     0.99265921     4.00215881     0.37290034    -1.68424906    -0.72400801
O       1.90118622     4.73246321     4.11712680    -0.46364926     0.55912104    -0.67523108
O       1.61629624     1.05323624     4.12677582     0.00035250    -0.58497221    -0.90511349
O       3.73500320     2.86481423     3.25934683    -0.29343574    -0.33388409    -0.44801232
O       3.72755323    -0.66537276     3.14382580     1.08240552    -0.73603743     0.37741983
O      -0.01132979    -1.05051077     3.25771580     0.21275861     0.24466164     0.16544464
O       5.77271900     6.50588800     1.66831500    -0.65962602     0.05817920    -0.11562332
O       5.92137198     3.18657998     1.88119999     0.25364662    -1.06892394    -1.10450750
O       1.96414201     6.50328000     1.59423600    -0.73300610     0.70904110     0.19160896
O       1.78894301     2.88388499     1.67868798     0.41706908    -0.46130621    -0.38273790
