# total energy = -4980.80572397 eV

CRYSTAL
PRIMVEC
        4.02225611     0.00000000     0.00000000
        0.00000000     2.39051726     0.00000000
        0.00000000    -0.00009543     5.45002506
PRIMCOORD
6 1
Ti      2.01112805     1.19521077     2.72501228     0.00000000     0.00000000     0.00000000
Ti      0.00000000     0.00000000     0.00000000     0.00000000     0.00000000     0.00000000
O       2.01112805     0.46585795     1.06212953    -0.00000000    -1.22829177    -0.40727446
O       2.01112805     1.92456358     4.38789504    -0.00000000     1.22829177     0.40727446
O       0.00000000     0.72931507     3.78714302    -0.00000000     1.22798581    -0.40451644
O       0.00000000     1.66110647     1.66288155    -0.00000000    -1.22798581     0.40451644
