# total energy = -4987.27463528 eV

CRYSTAL
PRIMVEC
        3.54528825     0.00000000     0.00000000
        0.87267845     3.43620446     0.00000000
       -2.20901564    -1.71812734     4.56090244
PRIMCOORD
6 1
Ti      0.65439372     2.57728494     1.14022554     0.00065357    -0.00069060    -0.00279762
Ti      1.55455752    -0.85920769     3.42067661    -0.00065357     0.00069060     0.00279762
O       0.21820679     0.85904622     0.74293368     0.00049082     0.00148301     0.49102766
O       1.99074429     0.85903095     3.81796846    -0.00049082    -0.00148301    -0.49102766
O      -0.21818146    -0.85902652     3.02338476     0.00153623     0.00048877     0.48575279
O       2.42713253     2.57710364     1.53751739    -0.00153623    -0.00048877    -0.48575279
