# total energy = -19516.95136913 eV

CRYSTAL
PRIMVEC
        5.17600016     0.00000000     0.00000000
        0.00000000     5.50899976     0.00000000
        0.00000000     0.00000000     9.26300011
PRIMCOORD
23 1
Ti      1.96328898     3.14183699     3.39603898    -1.43319051    -0.58868283     1.59650345
Ti      3.36240601     2.21350600     5.81360101    -0.08851566     1.53053457    -1.47520415
Ti      4.40534002     2.07195801     1.52523399     1.11799346    -0.44754515    -2.59453690
Ti      0.82558202     3.42597898     7.75115298    -0.55627997    -0.23535681     2.18235652
Ti      2.00148399     0.26873298     1.35739902     0.42245066    -0.35971264    -2.47656616
Ti      3.15098599     5.27733099     7.80835302     0.05223507    -0.87434946     2.90023475
Ti      0.66765500     0.53921998     5.94636698     0.14884045    -0.22880795    -2.48755120
Ti      4.50522100     4.94712100     3.28994201     0.58389723    -0.08549281     3.07097663
O       1.78427303     1.92930500     4.77787202    -1.99412238    -0.69710834     0.18860514
O       3.39188398     3.63242002     4.41736102     1.92250428     0.33739237     1.15771573
O       0.31063800     2.58384900     0.06140298    -0.40466762     0.14982389    -0.09891320
O       3.37859301     0.91634402     0.20206702     0.08413450     0.21315250    -0.68300455
O       1.83015402     4.61810398     9.08588803     0.19861137     0.27849660    -0.19410756
O       4.15808099     0.81957798     4.92322801     1.05012737    -1.36354419    -1.41812256
O       0.93141700     4.75287998     4.49091798    -0.68892503     0.07043951     0.08536348
O       0.12587402     3.30980901     2.59222799     0.36169084     0.36498854     0.17615226
O       5.02925502     2.06721701     6.80998499    -0.28949501     1.50363979     0.02788825
O       2.81560599     1.57303102     2.46718299    -0.39643546     1.74857654     0.56466563
O       2.49605400     3.57806902     6.97695502     0.98069753     0.45358390    -0.03462840
O       0.26009797     0.57009699     1.91888498    -0.82485365    -0.26183636     0.83012416
O       5.01957600     5.04773601     7.42393501    -0.46228709    -1.13162957    -0.37357654
O       2.30232999     1.04342101     6.95478599    -0.70489339     0.09249496    -0.06424624
O       2.81105999     4.50256199     2.33278699     0.92048253    -0.46905681    -0.88012879
