# total energy = -19518.48266854 eV

CRYSTAL
PRIMVEC
        7.60600008     0.00000000     0.00000000
        0.00000000     7.60600008     0.00000000
       -1.89786986    -1.89786986     4.85670466
PRIMCOORD
23 1
Ti      3.77783899     6.56414200     1.27675701     0.75923239     0.51854645    -0.26471497
Ti      3.78758400     2.87992500     1.05262002     0.66269874    -0.75391483     1.56706482
Ti     -0.02833998     6.53941201     1.24549401    -0.19776727     2.05268622    -0.23638114
Ti      0.00193499     2.89493400     1.13255901    -0.84804398    -1.69544879    -0.03801377
Ti      5.68794020     2.91805920     3.66643082    -1.63202094     0.21092515    -1.59956306
Ti      5.69730722    -0.91546278     3.65740782     0.50089145    -0.22142477     1.32312026
Ti      1.88759224     2.93400024     3.61720480     2.22549836    -0.65143782    -0.67885453
Ti      1.87862025    -0.99496478     3.64321481    -0.36754473     0.28238925     0.44330309
O       4.05691802     4.70957698     0.73687001    -1.15486206     0.47803459     0.49774133
O       3.73675599     0.95624499     0.78158400    -0.06496666    -0.32551721     0.11235442
O      -0.20435000     4.78951899     0.71632698     0.51831376    -0.55265986     1.22314133
O       0.07327401     0.94629201     0.85725799    -0.15394717    -0.13071673    -0.39685943
O      -1.60586880     4.75719923     4.11232780    -0.37902188    -0.34049877    -0.18016164
O       5.58869523     0.96994121     4.09035980     0.82285282    -0.04159481    -0.88157529
O       1.82262224     4.70665624     4.12653182    -0.57307700     0.82581884    -0.22269978
O       2.01765623     0.96273021     3.95074580    -0.88624982    -0.39638506     0.45589276
O       3.83373423     3.00416523     3.40645382    -0.44803212    -0.01591873    -1.76586567
O       3.87694621    -1.01325775     3.25119279    -1.89120983    -0.30288892    -0.12343562
O      -0.07426479    -0.95826279     3.26799883     1.80113582     0.43984032    -0.43270911
O       5.68042901     6.64585099     1.62028899    -0.05650593     0.22021918    -0.03622454
O       5.76749502     2.79744097     1.65366499    -0.26009392     0.07367653     0.68554635
O       1.86507500     6.37016102     1.72240400     0.74193220     0.19623412    -0.14436878
O       1.84210099     2.99920599     1.56459398     0.88078776     0.13003590     0.69326300
