# total energy = -4959.48660371 eV

CRYSTAL
PRIMVEC
        4.34985077     0.00000000     0.00000000
       -0.00000658     2.60991046     0.00000000
       -2.17494988    -1.30500284     4.73717510
PRIMCOORD
6 1
Ti     -0.00018645     1.95752561     1.18429346    -0.01783112    -0.02387373    31.48995606
Ti      2.17508061    -0.65261809     3.55288106     0.01783112     0.02387373   -31.48995606
O       0.00004607     0.65246923     0.77164702     0.01703151     0.01964632   -19.90631750
O       2.17484799     0.65243824     3.96552756    -0.01703151    -0.01964632    19.90631750
O      -0.00001792    -0.65247792     3.14023457    -0.00151129    -0.00023089     0.52485954
O       2.17491193     1.95738534     1.59693996     0.00151129     0.00023089    -0.52485954
