# total energy = -19074.76049791 eV

CRYSTAL
PRIMVEC
        7.60600008     0.00000000     0.00000000
        0.00000000     7.60600008     0.00000000
       -1.89786986    -1.89786986     4.85670466
PRIMCOORD
22 1
Ti      3.80523100     6.81827799     1.00267299     0.25440330     0.39668845     1.88018159
Ti      3.98023399     3.10335300     1.15445399    -0.01297611    -1.82755109     0.61779467
Ti     -0.02519699     6.53793301     1.14465098    -1.60450986    -0.17701152     0.47262062
Ti      0.02176802     2.69241998     1.15617202    -0.38141661    -0.01069579     0.17412443
Ti      5.73403424     2.59937321     3.71743780     0.04811256    -0.25499774    -1.18736571
Ti      6.07332523    -1.19305678     3.78843481     0.04047663     0.75031349    -0.66656311
Ti      1.96152423     2.95915722     3.55239080    -0.35051297    -1.23033477    -0.91391516
Ti      1.42535723    -0.71619876     3.75367982     0.19773436     0.15800566     0.60367776
O       3.95643499     4.88884699     0.73084300    -0.27504695     1.13967558     0.30159334
O       3.79243999     1.21015302     0.71038601    -0.15348232    -1.92867236     1.91390393
O      -0.11674301     4.59913499     0.74339201    -0.06600127     0.47993438     0.53867357
O       7.25038498     0.79944802     0.61570599     0.34065947     0.14071679     2.69070391
O       5.57785620     4.59110324     4.10828679     0.87323052    -0.14208616    -1.08768837
O       5.51569523     0.72006424     3.96713283     0.81263037     0.85818647     0.90612702
O       1.86006020     4.91315422     4.07574080    -0.11679883     0.45841989    -1.36868382
O       2.22770223     1.02906523     4.00571980    -1.11855062     0.40649696     0.11254288
O       3.77068620     2.74991424     3.18871479     0.67051361     1.12157758    -0.75870120
O       0.02820123     2.50935021     3.31697280     0.30995329     0.47508142    -0.23666062
O       5.68439101     6.66562798     2.06837199    -0.62164927    -0.25970491    -3.08449627
O       5.82476300     2.85310502     1.68731997    -1.46563682     0.32700253     0.03960169
O       1.65642502     6.76588299     1.93616298     1.54974663    -0.22723110    -1.76894508
O       1.80640697     3.16181698     1.55472398     1.06912088    -0.65381404     0.82147445
