# total energy = -19518.24983845 eV

CRYSTAL
PRIMVEC
        7.60600008     0.00000000     0.00000000
        0.00000000     7.60600008     0.00000000
       -1.89786986    -1.89786986     4.85670466
PRIMCOORD
23 1
Ti      3.81466898     6.59471802     1.25064899     0.50080043    -0.04732503    -0.38337374
Ti      3.67873102     2.77872800     1.32849001     1.17755566     0.23233165     0.16668005
Ti     -0.01762298     6.72964800     1.16179601    -0.07657905    -0.28499352    -0.13704859
Ti      0.00410202     2.92230701     1.15517700    -1.32275542     0.31369373    -0.45191294
Ti      5.61710924     2.91314320     3.59515779    -0.32520636    -0.16573928    -0.32824669
Ti      5.77149824    -0.86854677     3.63727083    -0.30160825    -0.25943289    -0.24356121
Ti      1.78097323     2.71901722     3.72840081     1.75695346    -0.00073251     0.26621443
Ti      1.89361623    -1.04476179     3.63288580     0.36376752     0.55801881     0.24933591
O       3.97142700     4.71306399     0.86526201    -1.26658297    -0.19267649     0.15873663
O       3.94436800     0.94491202     0.77336498    -0.60200603    -0.85592879    -0.24546665
O      -0.06054798     4.85338698     0.62340202     0.64031420     0.34021338     2.34799990
O      -0.12839697     1.02326698     0.68765700     0.38092887    -1.88567501     0.31169572
O       5.84277524     4.73220820     3.78484381     0.28939602     1.82071838     1.46559568
O       5.76212720     1.02947222     4.13565880     0.31464118    -0.43335548    -1.55850613
O       1.83667925     4.59734420     3.87465980    -0.36086629     2.26626116     0.95211045
O       2.16479020     0.95835524     4.12479479    -1.23481235    -1.09825201     0.01002216
O       3.79951223     2.85720620     3.24228880    -1.00263265    -0.00805116    -0.78057075
O       3.89582821    -0.87172877     3.10139980    -0.88228003    -0.33023313     0.95490910
O       0.00768625    -0.66795975     3.29624779     1.37016761    -0.67115716    -0.82875916
O       5.78590298     6.60394999     1.60968200     0.32472994     0.41767458    -0.42245863
O       5.83621498     2.79022702     1.73417698     0.00262973     0.08635259    -0.56943117
O       1.94347198     6.62734698     1.65461301    -0.90773139     0.02823329    -0.33245636
O       1.72238400     2.67916801     1.75774198     1.16117644     0.17005488    -0.60150852
