# total energy = -4978.06348083 eV

CRYSTAL
PRIMVEC
        4.79196675     0.00000000     0.00000000
       -0.00001067     4.79196675     0.00000000
       -2.39602095    -2.39602629     6.11561532
PRIMCOORD
6 1
Ti     -0.00021102     3.59415656     1.52890366    -0.00455214     0.00455214     0.00000000
Ti      2.39614602    -1.19821623     4.58671125     0.00455214    -0.00455214     0.00000000
O       0.00004787     1.19798355     0.99618370    -0.00052862    -0.00235230    -1.33491751
O       2.39588699     1.19795665     5.11943129     0.00052862     0.00235230     1.33491751
O      -0.00002707    -1.19796274     4.05399129    -0.00235230    -0.00052862    -1.33491751
O       2.39596186     3.59390287     2.06162370     0.00235230     0.00052862     1.33491751
