# total energy = -19517.32055975 eV

CRYSTAL
PRIMVEC
        5.17600016     0.00000000     0.00000000
        0.00000000     5.50899976     0.00000000
        0.00000000     0.00000000     9.26300011
PRIMCOORD
23 1
Ti      1.83225898     3.27942397     3.44037398    -1.25911519    -0.36862614     1.92240272
Ti      3.40820000     2.27250698     5.78503798    -0.34954520     0.05115777    -0.70896782
Ti      4.35009597     1.92180101     1.59529102     0.97684910     1.13436574    -1.11737922
Ti      1.11098202     3.34438202     7.92730402    -1.93841530    -0.56274733    -0.45982603
Ti      1.88904599     0.38449903     1.19535902     1.19056956    -0.10247290     0.26200399
Ti      3.29016998     5.34481500     7.85646698     0.69180236    -1.07873141    -0.19174215
Ti      0.61139398     0.50995399     5.78505597    -0.05674247    -0.01246548    -1.35209403
Ti      4.31754702     4.86031698     3.38961900     1.57553969     0.37080592     1.73079479
O       1.58306602     2.00687202     4.89746200     0.81549432     1.05867140    -0.92443071
O       3.39858898     3.78259502     4.59561199    -0.00199646    -0.93496838     0.56956795
O       0.54423901     2.57195299     0.21561502    -0.30023785    -1.26563654     0.09911735
O       3.46305599     0.93323498     0.07470797     0.10266367     0.62746845     0.70356541
O       1.56096202     4.76475900     8.99427400     1.10696805     1.64338624     0.51330037
O       4.18748399     0.90806398     4.65334602     0.51367472    -0.28316752    -0.12583601
O       0.99425002     4.71551102     4.37781401    -0.83983162     1.14413465     0.73050699
O       5.13748701     3.18682298     2.84845901     0.26911078    -0.42967829    -1.52420091
O       5.07070399     1.91956698     6.84218199    -0.91498036     0.72272888     0.38139501
O       2.59567701     1.90392699     2.37075202     0.39997613    -0.28484928    -1.02502773
O       2.96088202     3.59222499     7.20069799    -1.86443923    -1.80482201     0.77842645
O       0.22065501     0.55545699     2.14283702    -0.18681874    -0.67582192    -0.27136898
O       5.08254502     4.73883900     7.11904800     0.39589990     0.27791167     0.04530491
O       2.37196098     0.69191799     6.59388700     0.74865101     0.24523011     1.23242430
O       2.86555598     4.57690103     2.25023301    -1.07507710     0.52812561    -1.26793717
