# total energy = -39036.84950879 eV

CRYSTAL
PRIMVEC
        7.60600008     0.00000000     0.00000000
        0.00000000     7.60600008     0.00000000
       -3.79573973    -3.79573973     9.71340985
PRIMCOORD
46 1
Ti      1.77340642     4.67127645     6.08350565    -0.29986376     1.68681116     0.15625988
Ti      3.77566999     6.66420402     1.17219799     0.53698409     0.88424333     0.56744808
Ti      1.87736546     0.68565443     6.16823761     0.63806885     0.48079621    -0.74394101
Ti      3.91382002     2.78530001     1.25533502     1.43906240    -1.06281165    -0.29237619
Ti     -2.06805554     4.76529744     5.98331562     0.64665505    -0.17923578     1.20734396
Ti     -0.09643700     6.71096000     1.05212402    -0.25252433    -1.12117674     1.12964570
Ti     -1.86876655     0.95433847     6.14319065    -0.25020545     0.00871501    -0.28900419
Ti      0.12436602     2.85104298     1.21072701    -0.93048695     1.56012027     0.29440376
Ti      3.84918446     1.04713446     8.39970865    -0.23020664    -0.43604615     1.23941539
Ti      5.82373402     2.78443200     3.74384898    -0.48820639     0.00707774    -1.08837203
Ti      3.79016146    -2.71276753     8.47549562    -0.38049770     0.14041725    -0.28852262
Ti      5.69695902    -0.93555701     3.70645499     0.43793462    -0.17266533    -0.87811639
Ti      0.01789746     0.99677843     8.44996763     0.13104223    -0.45104057     0.55563797
Ti      2.00506599     2.84844599     3.57576101     0.24416465     1.27634879    -0.47937259
Ti     -0.11354657    -2.89584656     8.49680664     0.42957545     0.09136059     0.52472841
Ti      1.83849401    -0.85720999     3.57168698    -0.28185960    -0.79421535     0.57983154
O       1.71600344    -1.05741256     5.74878161     0.22785228     0.21125066    -1.50232390
O       4.02667602     0.90502402     0.74505299    -0.76216191     0.41044772    -0.49418678
O      -1.99396655     2.82110943     5.76447463     0.27690766    -0.16309670    -1.13012341
O      -0.08565300     4.73627202     0.71904700     0.78650306     0.41127664    -0.07416530
O      -1.82683555    -0.92288555     5.78643464    -0.59038901    -0.52246558    -1.05784402
O      -0.03535502     1.04839401     0.83077098     0.48098365    -1.08851138    -1.12664342
O       3.41702144     2.92101545     8.91565260     1.00396525     0.39254743    -0.14244945
O       5.66833201     4.69201100     4.13276701    -0.28178838     0.84865616    -0.63334239
O       4.08829246    -0.84297857     8.78924962    -0.45663478    -1.42345348     0.52806622
O       5.91551801     0.92196499     4.09625298    -0.33501975    -0.21667646     0.23801791
O       0.14174843     2.79364947     8.88571763    -0.33543216     0.84555104     0.25624575
O       2.04302001     4.68292502     3.99743500    -0.20754544     0.34310176     1.07609629
O      -0.24165054    -0.72613655     9.07066561     0.38583274    -1.01392134     0.03865964
O       1.85129200     1.12312701     4.07607900    -0.03287774    -2.76344790     1.43986947
O       1.98576647     0.94378747     8.05056861    -0.92708898    -0.41585398     0.19642438
O       3.88459298     2.64208199     3.20492402     1.01371256     0.69917834     0.68347815
O       1.80948747    -2.63526953     8.05377262    -0.09302615    -0.54307967    -0.08883550
O       3.78969499    -0.92673399     3.10276900     0.28941016     0.04049155     1.37292846
O      -1.89278056     1.19480243     8.07363365    -0.00126601     0.28043624     0.16427350
O       0.01015602     2.99080398     3.25242900     0.78600607    -0.19453848    -0.50718911
O      -2.00858555     4.43001444     8.04616062    -0.52312610     0.70503146     1.06996883
O      -0.00980698    -1.03136403     3.25261199     0.27354388     0.23205834     0.14770170
O       3.68865045     4.82069145     6.44291564    -0.32583705    -0.44523270     0.29951640
O       5.73501301     6.53885701     1.68085898    -0.52361564     0.05697515    -0.07303761
O       3.84774044     0.81585543     6.44156962    -0.74327715     0.36381895    -0.27865806
O       5.83451098     2.69068698     1.59146899    -0.69831445     1.04260766     0.43892784
O      -0.21985553     4.81402244     6.55948661     2.13106530    -0.74147506    -0.66247711
O       1.86763802     6.72445000     1.60106398    -0.06987567    -0.25467275    -0.47697761
O       0.03527644     0.91122947     6.58408462     0.04913149     0.41022763    -1.41105536
O       2.08373099     2.73788901     1.65372002    -2.18727504     0.57406944    -0.48587543
