# total energy = -4982.57025878 eV

CRYSTAL
PRIMVEC
        2.80106644     0.00000000     0.00000000
        1.49045267     4.12802196     0.00000000
       -0.00000968    -0.00005815     4.45973136
PRIMCOORD
6 1
Ti      2.14575470     2.06398186     2.22986568     0.00000000     0.00000000     0.00000000
Ti      0.00000000     0.00000000     0.00000000     0.00000000     0.00000000     0.00000000
O       1.69099858     0.80447934     0.86913597    -6.75039374     2.97264579     3.70225469
O       2.60051083     3.32348437     3.59059544     6.75039374    -2.97264579    -3.70225469
O       0.45475206     1.25947901     3.09900253     6.74799285    -2.97021146     3.69848236
O       1.03569101     2.86848469     1.36072887    -6.74799285     2.97021146    -3.69848236
