# total energy = -19859.13594042 eV

CRYSTAL
PRIMVEC
        7.10372031     0.00000000     0.00000000
        0.00002191     2.52016887     0.00000000
        0.00000000     0.00000000    11.30141986
PRIMCOORD
24 1
Ti      2.57476976     1.49344983     4.19274626    -1.29408967     0.80003376    -1.31724657
Ti      4.52897217     1.02671928     7.10867394     1.29408967    -0.80003376     1.31724657
Ti      6.12650878     1.02672020     1.45791869    -1.29157795    -0.80066033     1.31935642
Ti      0.97723320     1.49344900     9.84350161     1.29157795     0.80066033    -1.31935642
Ti      2.57475910     0.23336544     1.45796401    -1.29408967     0.80003376     1.31724657
Ti      4.52898289     2.28680377     9.84345629     1.29408967    -0.80003376    -1.31724657
Ti      0.97722249     0.23336447     7.10862862     1.29157795     0.80066033     1.31935642
Ti      6.12651949     2.28680474     4.19279158    -1.29157795    -0.80066033    -1.31935642
O       2.24837994     0.88739438     5.76702818    10.88939880    -1.57137836     5.84281199
O       4.85536205     1.63277478     5.53439202   -10.88939880     1.57137836    -5.84281199
O       1.30353697     0.88740454     0.11635447   -10.88553109    -1.57167918     5.84228748
O       5.80020506     1.63276462    11.18506539    10.88553109     1.57167918    -5.84228748
O       4.85535133     0.37269030     0.11631777   -10.88939880     1.57137836     5.84281199
O       2.24839065     2.14747881    11.18510209    10.88939880    -1.57137836    -5.84281199
O       5.80019435     0.37268018     5.76706484    10.88553109     1.57167918     5.84228748
O       1.30354754     2.14748898     5.53435536   -10.88553109    -1.57167918    -5.84228748
O       0.25810774     1.53290958     3.05279550     3.26765967    -0.91737895     7.29094627
O       6.84563424     0.98725953     8.24862465    -3.26765967     0.91737895    -7.29094627
O       3.80997733     0.98723596     2.59795050     3.27123068     0.91775304    -7.29099152
O       3.29376465     1.53293320     8.70346951    -3.27123068    -0.91775304     7.29099152
O       0.25809703     0.27282515     2.59791443     3.26765967    -0.91737895    -7.29094627
O       6.84564496     2.24734401     8.70350558    -3.26765967     0.91737895     7.29094627
O       3.29375399     0.27284871     8.24866067    -3.27123068    -0.91775304    -7.29099152
O       3.80998800     2.24732040     3.05275943     3.27123068     0.91775304     7.29099152
