# total energy = -4986.79571526 eV

CRYSTAL
PRIMVEC
        3.34656489     0.00000000     0.00000000
        0.00000000     3.49571031     0.00000000
        0.00000000    -0.00006110     4.55170572
PRIMCOORD
6 1
Ti      1.67328230     1.74782456     2.27585281     0.00000000     0.00000000     0.00000000
Ti      0.00000000     0.00000000     0.00000000     0.00000000     0.00000000     0.00000000
O       1.67328230     0.68125054     0.88706038     0.00000000    -1.31647473    -1.33599095
O       1.67328230     2.81439858     3.66464519     0.00000000     1.31647473     1.33599095
O       0.00000000     1.06654957     3.16291419    -0.00000000     1.31684162    -1.33680008
O       0.00000000     2.42909954     1.38879143    -0.00000000    -1.31684162     1.33680008
