# total energy = -19519.02652122 eV

CRYSTAL
PRIMVEC
        7.60600008     0.00000000     0.00000000
        0.00000000     7.60600008     0.00000000
       -1.89786986    -1.89786986     4.85670466
PRIMCOORD
23 1
Ti      3.79360598     6.69877702     1.20094501     0.39941460     0.27234060    -0.10809924
Ti      3.76785003     2.90208302     1.35184800     0.05925547    -0.38352055     0.97019020
Ti      0.01437902     6.65670499     1.11434500    -0.14525196    -0.28062856     0.01276682
Ti     -0.08825100     2.78041200     1.13797001     0.53577233     0.24800099     0.43575098
Ti      5.75621021     2.81696920     3.68794283    -1.68465504    -0.27042719    -0.57936540
Ti      5.74462821    -0.98670877     3.52850183    -0.59662188     0.38958244     0.74427525
Ti      1.86903224     2.83759124     3.73947480     1.66693396     0.11274729    -0.99759997
Ti      1.85850622    -0.90639675     3.63174082     0.58921299    -0.09406204     0.37862619
O       3.93523699     4.76651301     0.86994099    -0.90647618     0.02124683     0.17936562
O       3.75408099     1.01914299     0.77705001    -0.11523020    -0.76013228    -0.15597089
O      -0.07884598     4.69408701     0.74792600     0.66592856     1.43662011     0.70578659
O       0.05165998     0.90832502     0.74084799     0.02945405    -0.37041614    -0.38348995
O       5.76851220     4.70404322     3.97301279     0.36891822     0.60430151     0.18613071
O       5.58688523     0.96779322     4.12989680     0.88377230    -1.42339512    -1.92911921
O       2.03331924     4.71342225     4.05139383    -0.87803797     1.21701491     0.19615108
O       1.91880523     0.99914020     4.11196383    -0.68363756    -0.87954592    -0.41795046
O       3.85094720     2.80979425     3.35132181    -0.96489655     0.23793332    -1.50522257
O       3.88044222    -0.94976479     3.13969583    -0.79353272    -0.01632883     0.36508933
O      -0.01432779    -1.02735577     3.17891184     0.96738487     0.28780194     0.07669552
O       5.76479701     6.79212399     1.52681797    -0.26786380    -0.26365439     0.50503453
O       5.69898101     2.79956001     1.60774600     0.42326339    -0.17400333     0.75918740
O       1.90995701     6.67563901     1.64149100    -0.01884594    -0.10430455    -0.17804999
O       1.74652099     2.83266598     1.70816400     0.46573957     0.19282947     0.73981773
