# total energy = -19518.83344412 eV

CRYSTAL
PRIMVEC
        7.60600008     0.00000000     0.00000000
        0.00000000     7.60600008     0.00000000
       -1.89786986    -1.89786986     4.85670466
PRIMCOORD
23 1
Ti      3.82111198     6.69020001     1.17183900    -0.21431953    -0.55329184     2.01062784
Ti      3.85737999     2.86460098     1.20941402     0.26921414     0.68046610     1.00353742
Ti      0.01071298     6.56695299     1.17869697    -0.40588761     0.19397232     0.09234506
Ti      0.04592100     2.78390102     1.09975003    -1.05038345    -0.05233611     0.17752934
Ti      5.66515224     2.88689320     3.63326379    -0.54782078    -0.64027486     0.33446131
Ti      5.74835325    -0.97514476     3.63898282    -1.84263087     0.54205997    -0.64530548
Ti      2.04336524     2.91151524     3.67466784    -0.10734437    -0.22512305     1.88977155
Ti      1.79308023    -0.84959677     3.66184079     1.78446633    -0.06129744    -0.57968576
O       3.65486502     4.79794101     0.90277602     0.21135761    -0.99534896    -0.18032336
O       3.65144500     1.00667198     0.75199601     0.19788014    -0.18126798     0.21013891
O      -0.09840300     4.71075001     0.70244502     0.42931525     0.46443962     0.51155613
O      -0.07754500     0.83045199     0.87721702     0.05923258     1.03269014    -1.14383743
O       5.70552122     4.78196324     3.82746084     0.19377538    -1.02699823     1.37729625
O       5.93615920     0.95871624     4.07196581     0.21601928    -0.36531610    -0.38550698
O       1.99701821     4.76021723     4.12743279    -0.27612553     0.48881986    -1.12882835
O       1.72526923     1.04376625     4.14069583    -0.20999776    -0.39349849    -0.29563275
O       3.80834325     2.63313022     3.22838181     0.61892595     0.41517032    -0.15111819
O       3.77088925    -0.67399576     3.21618084    -0.50448277    -0.40009131     0.07462244
O      -0.02452477    -0.96723177     3.16445482     0.04581990    -0.06038547     0.44669154
O       5.64379602     6.52272202     1.64998498     0.22411158     0.43780607    -0.24992983
O       5.80430998     2.92684302     1.72050701    -0.13794205    -0.55609691    -1.48696824
O       1.77926098     6.47298402     1.62374203     1.16730775     0.60990318     0.04750552
O       1.72540698     2.66117900     1.92287402    -0.12049068     0.64599968    -1.92894721
