# total energy = -19517.53250183 eV

CRYSTAL
PRIMVEC
        5.17600016     0.00000000     0.00000000
        0.00000000     5.50899976     0.00000000
        0.00000000     0.00000000     9.26300011
PRIMCOORD
23 1
Ti      1.85416300     3.30965598     3.42003002    -0.33438135    -0.89048931     2.72446199
Ti      3.41759798     2.25708798     5.76558199    -1.15413650    -0.02397375    -1.91606366
Ti      4.42913997     2.03699898     1.51818000    -0.15373377     0.35599302    -1.55231259
Ti      0.79120497     3.40098202     7.70294398    -0.28408464     0.38596515     2.04547505
Ti      1.97102201     0.39830298     1.38608498     0.07103395    -0.46923370    -1.86755130
Ti      3.17722201     5.15877798     7.91659300    -0.27340453     0.50680653     2.31607270
Ti      0.71767998     0.47972400     5.92301301     0.02229816    -0.17313687    -2.97033154
Ti      4.46589001     4.92533498     3.33634699    -0.15827537    -1.06534008     3.70086809
O       1.80039801     1.91017599     4.75411402    -0.76841946    -0.14513883     0.21927379
O       3.54095200     3.61230398     4.44771801     0.21090227    -0.71148416     0.78488250
O       0.21631300     2.60084898     0.00696598    -0.12860149    -0.14284900    -0.02213772
O       3.52515701     0.74235001     0.34628200     0.15043067     0.67005673    -1.06394859
O       1.77003800     4.78650898     9.08975203    -1.52545561    -0.18031565     0.59698749
O       4.23950301     0.64632799     4.79513198     0.16016950     1.29943036    -0.14798710
O       0.90019300     4.57893201     4.56624398     0.44269039     0.44083508     0.41520503
O       0.24551702     3.42409601     2.46357903    -0.72890725    -0.50184970    -0.36748405
O       5.11255900     2.10880002     6.62828601     0.01398141     0.53500871     0.60451209
O       2.62857702     1.91921698     2.35154400     0.67310092     0.29040492    -1.18551117
O       2.59344902     3.51220502     7.22205400     0.77605101    -2.02871273    -1.34720302
O       0.11651700     0.52048102     2.15517299     1.75550978     1.55197218    -1.09449203
O       4.90340900     4.93478900     7.22822002     1.08531395    -0.75443574     0.13991614
O       2.45718101     0.75077901     6.76595602    -0.54049236     1.17940505    -0.06227420
O       2.76878401     4.65372597     2.37305701     0.68841030    -0.12891825     0.04964236
