# total energy = -4986.79275221 eV

CRYSTAL
PRIMVEC
        3.62636343     0.00000000     0.00000000
        1.39474872     3.34741508     0.00000000
       -2.51058974    -1.67372999     4.72726570
PRIMCOORD
6 1
Ti      1.04596351     2.51069018     1.18181618     0.00077570    -0.00077570     0.00000000
Ti      1.46455901    -0.83700505     3.54544888    -0.00077570     0.00077570     0.00000000
O       0.34872488     0.83684939     0.77003284     0.00022831     0.00050702    -1.48811752
O       2.16179747     0.83683567     3.95723227    -0.00022831    -0.00050702     1.48811752
O      -0.34869356    -0.83682851     3.13366559     0.00050702     0.00022831    -1.48811752
O       2.85921585     2.51051353     1.59359957    -0.00050702    -0.00022831     1.48811752
