# total energy = -19915.29090846 eV

CRYSTAL
PRIMVEC
        6.45186310     0.00000000     0.00000000
        0.68499617     6.83248179     0.00000000
        0.00000000     0.00000000    11.56191099
PRIMCOORD
24 1
Ti      2.74441822     4.04892242     4.28938662    -0.08388896    -1.35049506     0.70191811
Ti      4.39244125     2.78355942     7.27252477     0.08388896     1.35049506    -0.70191811
Ti      5.84338364     2.78356174     1.49152289     0.15104697     0.39101429    -0.52610858
Ti      1.29347584     4.04892043    10.07038869    -0.15104697    -0.39101429     0.52610858
Ti      2.40192027     0.63268158     1.49156927    -0.08388896    -1.35049506    -0.70191811
Ti      4.73493921     6.19980052    10.07034231     0.08388896     1.35049506     0.70191811
Ti      0.95097780     0.63267907     7.27247846    -0.15104697    -0.39101429    -0.52610858
Ti      6.18588161     6.19980297     4.28943300     0.15104697     0.39101429     0.52610858
O       2.28325428     2.40583300     5.89995483     1.60981405     1.64672199    -0.27529275
O       4.85360519     4.42664890     5.66195656    -1.60981405    -1.64672199     0.27529275
O       1.42511547     2.40586064     0.11903636    -1.18577548     0.90182582     0.34015219
O       5.71174408     4.42662134    11.44287477     1.18577548    -0.90182582    -0.34015219
O       4.51110723     1.01040781     0.11899887    -1.60981405    -1.64672199    -0.27529275
O       2.62575225     5.82207410    11.44291225     1.60981405     1.64672199     0.27529275
O       5.36924611     1.01038024     5.89999238     1.18577548    -0.90182582     0.34015219
O       1.76761330     5.82210167     5.66191907    -1.18577548     0.90182582    -0.34015219
O       0.65106459     4.15590289     3.12316068     0.48236664     0.43858023     0.86946411
O       6.48579482     2.67657902     8.43875071    -0.48236664    -0.43858023    -0.86946411
O       3.72869187     2.67651539     2.65783178     0.54305756     0.92437466     0.16990910
O       3.40816760     4.15596645     8.90407948    -0.54305756    -0.92437466    -0.16990910
O       0.30856662     0.73966179     2.65779482     0.48236664     0.43858023    -0.86946411
O       6.82829278     6.09282005     8.90411637    -0.48236664    -0.43858023     0.86946411
O       3.06566964     0.73972542     8.43878760    -0.54305756    -0.92437466     0.16990910
O       4.07118984     6.09275649     3.12312379     0.54305756     0.92437466    -0.16990910
