# total energy = -19901.25398257 eV

CRYSTAL
PRIMVEC
        6.74737825     0.00000000     0.00000000
        1.07119881     7.10090812     0.00000000
        0.00000000     0.00000000    12.11061888
PRIMCOORD
24 1
Ti      3.08039148     4.20799151     4.49295327    -0.18973669    -1.45118336     0.62456490
Ti      4.73818549     2.89291641     7.61766589     0.18973669     1.45118336    -0.62456490
Ti      6.25558561     2.89291881     1.56230788     0.25040034     0.16412232    -0.45986125
Ti      1.56299138     4.20798938    10.54831142    -0.25040034    -0.16412232     0.45986125
Ti      2.54479222     0.65753757     1.56235645    -0.18973669    -1.45118336    -0.62456490
Ti      5.27378476     6.44337055    10.54826285     0.18973669     1.45118336     0.62456490
Ti      1.02739208     0.65753497     7.61761732    -0.25040034    -0.16412232    -0.45986125
Ti      6.79118490     6.44337316     4.49300184     0.25040034     0.16412232     0.45986125
O       2.51277510     2.50035038     6.17995617     1.64011091     1.72470641    -0.37974282
O       5.30580187     4.60055754     5.93066292    -1.64011091    -1.72470641     0.37974282
O       1.61533238     2.50037908     0.12468560    -1.05061099     0.68075278     0.48544168
O       6.20324467     4.60052890    11.98593321     1.05061099    -0.68075278    -0.48544168
O       4.77020260     1.05010340     0.12464632    -1.64011091    -1.72470641    -0.37974282
O       3.04837437     6.05080452    11.98597250     1.64011091     1.72470641     0.37974282
O       5.66764539     1.05007476     6.17999552     1.05061099    -0.68075278     0.48544168
O       2.15093151     6.05083323     5.93062363    -1.05061099     0.68075278    -0.48544168
O       0.89671168     4.31917484     3.27138035     0.49385768     0.80702896     1.13694610
O       6.92186528     2.78173301     8.83923881    -0.49385768    -0.80702896    -1.13694610
O       4.03847529     2.78166697     2.78396775     0.51821195     1.18424978     0.43589702
O       3.78010168     4.31924088     9.32665120    -0.51821195    -1.18424978    -0.43589702
O       0.36111241     0.76872070     2.78392902     0.49385768     0.80702896    -1.13694610
O       7.45746456     6.33218715     9.32668986    -0.49385768    -0.80702896     1.13694610
O       3.24450241     0.76878674     8.83927740    -0.51821195    -1.18424978     0.43589702
O       4.57407456     6.33212111     3.27134169     0.51821195     1.18424978    -0.43589702
