# total energy = -19517.71518105 eV

CRYSTAL
PRIMVEC
        5.17600016     0.00000000     0.00000000
        0.00000000     5.50899976     0.00000000
        0.00000000     0.00000000     9.26300011
PRIMCOORD
23 1
Ti      1.85169201     3.25931402     3.43166001    -0.05012367     0.49927474     2.49739519
Ti      3.30195698     2.24091399     5.84872801     1.16816907     0.47752217    -1.89329422
Ti      4.30803199     2.11105802     1.51448502     0.62279958    -0.48923586    -1.73702148
Ti      0.93479002     3.32614302     7.81074300    -1.78203226     0.82114612     1.62271662
Ti      1.96139299     0.37851599     1.26830399     0.38260009    -1.33224974    -0.34928167
Ti      3.37098201     5.17423001     7.88947198    -0.26392384    -0.55772699     2.31842397
Ti      0.70014902     0.56930799     5.88946402    -0.32142272    -0.32261109    -2.79710545
Ti      4.49876298     4.84985002     3.36764502     0.20292825     0.71140034     2.54603816
O       1.71511400     2.01364803     4.87164201    -0.96801890    -0.81827625    -0.15074229
O       3.52839102     3.52229897     4.50905500     0.44370392     0.62591961    -0.04080445
O       4.92716398     2.98198598     9.21434400     0.34619840    -0.16162552     0.80318850
O       3.38813598     1.02672002     0.14251997    -0.53268546    -0.98424102    -0.74686589
O       1.79978803     4.57612001     9.14017600     0.68986529     0.72461350    -0.24477914
O       4.31617402     0.71516702     4.71996600    -0.56242105     0.74596575     0.01452622
O       0.91069002     4.68047202     4.50229201     0.75354408    -0.19311923    -0.06869245
O       0.11675502     3.17046199     2.67853903     0.33033109     0.38513828    -0.40728552
O       5.09976397     2.07987202     6.73046002    -0.53171179    -0.20934341     0.43113688
O       2.64520901     1.91497801     2.42062698     0.35693893    -0.28127236    -1.50339811
O       2.67260198     3.54524802     7.10503401     0.33304926    -0.94005403    -0.10877544
O       0.22690401     0.53327499     2.00811701    -0.79653500     0.54894307    -0.52903475
O       5.08736202     4.76701700     7.13305300     0.12846290     0.50352349     0.25935190
O       2.50299500     0.64558100     6.69119698    -0.45202067     0.17087892     0.59959871
O       2.74682797     4.70083100     2.43529900     0.50230453     0.07542925    -0.51529554
