# total energy = -19073.89150810 eV

CRYSTAL
PRIMVEC
        5.17600016     0.00000000     0.00000000
        0.00000000     5.50899976     0.00000000
        0.00000000     0.00000000     9.26300011
PRIMCOORD
22 1
Ti      1.93203101     3.41910502     3.34926600    -0.05638174     0.46576425    -0.96528170
Ti      3.52539699     2.33248600     6.02365602     0.06018132    -1.17369386    -1.58746370
Ti      4.35340899     2.25532000     1.28091899    -0.65078990     1.00988959    -1.23404847
Ti      0.79236398     3.10929402     8.15007399    -1.16350509     2.44250931    -1.24283033
Ti      1.77288899     0.48005902     1.24476798     1.33546619     0.09784465    -1.01204751
Ti      3.16066501     4.97346201     7.98008802     1.96471744     1.20901723     1.46510306
Ti      0.59535700     0.18986599     5.96781898     0.13916281     2.12742256    -1.21955670
Ti      4.54397800     4.98658598     3.36391199    -0.63771455     0.49906596     0.85250433
O       3.37215498     3.55518200     4.45585602     1.20022251    -0.93552503     1.93762880
O       0.80255001     2.02883499     0.25295101     1.26315363    -2.24358839     0.12391051
O       4.25994798     3.76601600     9.20694801     0.20033966    -1.17454438    -0.78343316
O       3.38974103     0.76481501     0.22002200     0.01965121     0.83262096    -1.06529020
O       1.60481299     4.63286200     8.91275599    -1.32396795     1.28487380     1.80815828
O       4.37802902     0.83579599     4.68175501    -0.79322341    -0.11401870     1.00337287
O       1.12649401     5.02959502     4.24137100    -0.47888897    -1.52485397     1.43181626
O       0.23901100     3.47267702     2.44166199    -0.81967236    -0.66130443     0.35435188
O       0.11835499     2.39481900     6.43589002     0.68728390    -1.06568743     0.89617917
O       2.75008702     1.98480400     2.23743597    -1.07313489    -0.04986605     0.75868629
O       2.53652701     3.43461801     7.15662202    -0.90042097    -1.20157414    -1.02508738
O       0.06072002     0.70382098     2.09304102     0.10958817    -0.42582061     0.36567374
O       2.32428698     0.77835099     6.64369798     0.20564513    -0.19787089     0.03083551
O       2.72225198     4.69661399     2.34906602     0.71228789     0.79933981    -0.89318151
