# total energy = -19517.15059764 eV

CRYSTAL
PRIMVEC
        5.17600016     0.00000000     0.00000000
        0.00000000     5.50899976     0.00000000
        0.00000000     0.00000000     9.26300011
PRIMCOORD
23 1
Ti      1.97962500     3.19138899     3.37928702    -0.48097748    -0.49162647     2.93844007
Ti      3.32247403     2.33561899     5.92067199    -0.51794224     0.11110872    -2.50545611
Ti      4.35966001     2.13156999     1.55185102     1.02576230    -0.87765539    -1.41146211
Ti      0.72295201     3.41412001     7.77805000    -0.71601779     1.06698404     1.38504787
Ti      2.04726999     0.20535797     1.43489200    -1.38716698    -0.48153283    -1.50568151
Ti      3.12629601     5.19786402     7.86499202     0.62161764    -0.19934310     1.11915586
Ti      0.68791201     0.54358997     5.87811799     0.63990668     0.23241984    -3.54347512
Ti      4.56851600     4.84911298     3.42058597     1.55051256     0.21621289     2.58335054
O       1.84332598     1.91476200     4.67732199    -0.54364428    -0.70372662     1.17401165
O       3.73910099     3.49401699     4.49133402    -0.37643690     0.16809622    -0.22086504
O       4.74727800     2.98406200     9.21236298     0.05196279    -0.12609389    -0.37921343
O       3.40653002     0.66313900     0.27924398     0.97040514     0.64794446    -0.99421665
O       1.73704099     4.56475302     8.97425502    -0.13652897     0.09140609     1.45003510
O       4.38642600     0.66700998     4.77283398    -1.18133184     0.69422819    -0.28178067
O       1.09848497     4.66524701     4.42947902     0.07693515     0.12455765     0.23309938
O       0.33381099     3.26080202     2.50466001    -0.08816239     0.33005572    -0.62211464
O       5.08723300     2.33939298     6.52166298     0.17679529    -1.09484967     0.31198266
O       2.80353397     1.58864202     2.42404298    -0.52816752     1.69011940     0.10453569
O       2.36110798     3.74034101     6.78464502     1.01907434    -0.30115445     0.22274683
O       0.24038998     0.62208802     2.16526900     0.30995123     0.23385580    -1.28301849
O       5.00883000     4.97874399     7.08667199    -1.31924226    -0.83681340     1.71077848
O       2.26188301     1.02251798     6.98917399     0.19355323     0.32841690     0.53005934
O       2.96714299     4.48995101     2.36721098     0.63914203    -0.82261036    -1.01595945
