# total energy = -4988.88544680 eV

CRYSTAL
PRIMVEC
        3.16360260     0.00000000     0.00000000
        0.49445264     4.93216836     0.00000000
       -0.00000329    -0.00006432     4.96311411
PRIMCOORD
6 1
Ti      1.82902603     2.46605202     2.48155705     0.00000000     0.00000000     0.00000000
Ti      0.00000000     0.00000000     0.00000000     0.00000000     0.00000000     0.00000000
O       1.67816219     0.96119448     0.96723783     0.16860195    -0.46795123    -0.50989211
O       1.97988992     3.97090955     3.99587622    -0.16860195     0.46795123     0.50989211
O       0.15086248     1.50483146     3.44879589    -0.16914523     0.46982428    -0.51195182
O       0.34358708     3.42727245     1.51431816     0.16914523    -0.46982428     0.51195182
