# total energy = -19517.36792445 eV

CRYSTAL
PRIMVEC
        5.93400000     0.00000000     0.00000000
        0.00000000     9.29699974     0.00000000
        0.00000000     0.00000000     4.64899994
PRIMCOORD
23 1
Ti      4.45044999     7.03407198     2.30743300     1.14159285    -0.19950868     0.27385987
Ti      4.47208001     2.30630400     2.30860000     0.57724604    -1.08810309     0.26356131
Ti      1.33016999     7.16827398     2.13417201    -0.56911981    -0.59426546     0.36604372
Ti      1.49197800     2.27993198     2.34964198    -0.73617499    -0.74500724     0.66695058
Ti      3.09222498     4.50315197     0.14914300    -1.48794140    -0.67769368     0.34138092
Ti      2.99841800     9.15071600     4.57377698    -0.31109743     1.29419817    -0.08760292
Ti      0.03438202     4.67432102     0.04453302     1.38758298    -0.53555405    -1.27235355
Ti      0.01886898     0.05627599     0.04664099     0.32151066     2.02125087    -0.66516109
O       4.46824501     5.56808902     0.98728700    -0.78487530    -0.27547195    -0.80460466
O       4.40263698     0.79098298     0.86266999    -0.84847978     1.07379747     0.50235543
O       1.64039301     5.64228501     0.89475602    -0.36838343     0.04373500    -0.18120910
O       1.55583001     0.88952701     0.88859999    -0.44769350     0.14198768     0.29840054
O       4.49004399     8.35444097     3.62726800    -0.74073895    -0.00889319     1.46863061
O       4.51679501     3.67022000     3.61877402    -0.87863061     1.73848367     1.65431215
O       1.31633100     8.34126398     3.87256500     1.55483485    -1.28065719    -1.43756062
O       1.35863502     3.81139401     3.61985402     1.35015336     0.16605604     0.98432458
O       2.95794599     1.33056698     3.25842998    -0.03772890     0.16803091    -0.33042467
O       0.01818301     6.07058901     3.17950499    -0.36835052     0.32357577    -0.01550350
O       5.91960802     1.45219901     3.30787498    -0.07534646    -0.05439068    -0.76257148
O       2.89056500     7.98747698     1.58657902     0.31649495    -0.90608846    -0.31237012
O       2.91939903     3.23592502     1.58348799     0.86204570     0.94790618    -1.99611396
O       5.75621502     8.10998701     1.45204401     0.53512493    -2.05941712     0.91947337
O       0.02225799     3.10107198     1.29504501    -0.39202473     0.50602877     0.12618233
