# total energy = -4981.35727311 eV

CRYSTAL
PRIMVEC
        4.19433124     0.00000000     0.00000000
        0.00000000     2.49278538     0.00000000
        0.00000000    -0.00009951     5.68318122
PRIMCOORD
6 1
Ti      2.09716562     1.24634278     2.84159035     0.00000000     0.00000000     0.00000000
Ti      0.00000000     0.00000000     0.00000000     0.00000000     0.00000000     0.00000000
O       2.09716562     0.48578770     1.10756823    -0.00000000    -0.70096063     1.01743372
O       2.09716562     2.00689785     4.57561247    -0.00000000     0.70096063    -1.01743372
O       0.00000000     0.76051571     3.94915983     0.00000000     0.70085856     1.01488987
O       0.00000000     1.73216984     1.73402087     0.00000000    -0.70085856    -1.01488987
