# total energy = -19930.08632916 eV

CRYSTAL
PRIMVEC
        6.12884059     0.00000000     0.00000000
        1.60567813     6.32222588     0.00000000
        0.00000000     0.00000000    11.05733478
PRIMCOORD
24 1
Ti      3.17293338     3.74654539     4.10219254    -0.06423749    -1.97968435     0.80684538
Ti      4.56158552     2.57568091     6.95514285     0.06423749     1.97968435    -0.80684538
Ti      5.93988456     2.57568310     1.42643101    -0.18176806    -0.49304418    -0.11723463
Ti      1.79463437     3.74654345     9.63090451     0.18176806     0.49304418     0.11723463
Ti      2.37009444     0.58543249     1.42647534    -0.06423749    -1.97968435    -0.80684538
Ti      5.36442449     5.73679405     9.63086018     0.06423749     1.97968435     0.80684538
Ti      0.99179531     0.58543007     6.95509852     0.18176806     0.49304418    -0.11723463
Ti      6.74272361     5.73679642     4.10223688    -0.18176806    -0.49304418     0.11723463
O       2.50520332     2.22616335     5.64247356     1.77162315     2.00414146    -0.63200465
O       5.22931552     4.09606296     5.41486184    -1.77162315    -2.00414146     0.63200465
O       1.69003247     2.22618886     0.11384149    -0.70227575     0.06979391     0.96329270
O       6.04448650     4.09603755    10.94349360     0.70227575    -0.06979391    -0.96329270
O       4.42647656     0.93494988     0.11380561    -1.77162315    -2.00414146    -0.63200465
O       3.30804234     5.38727642    10.94352947     1.77162315     2.00414146     0.63200465
O       5.24164753     0.93492441     5.64250944     0.70227575    -0.06979391     0.96329270
O       2.49287131     5.38730196     5.41482596    -0.70227575     0.06979391    -0.96329270
O       1.19933941     3.84553631     2.98686215     0.47321120     1.54614580     1.62931819
O       6.53517942     2.47668999     8.07047324    -0.47321120    -1.54614580    -1.62931819
O       3.91610621     2.47663104     2.54184074     0.74466091     1.55229280     0.71646773
O       3.81841269     3.84559533     8.51549447    -0.74466091    -1.55229280    -0.71646773
O       0.39650046     0.68442323     2.54180542     0.47321120     1.54614580    -1.62931819
O       7.33801845     5.63780313     8.51552979    -0.47321120    -1.54614580     1.62931819
O       3.01557373     0.68448218     8.07050850    -0.74466091    -1.55229280     0.71646773
O       4.71894517     5.63774412     2.98682684     0.74466091     1.55229280    -0.71646773
