# total energy = -4983.42616617 eV

CRYSTAL
PRIMVEC
        4.46869915     0.00000000     0.00000000
       -0.00000995     4.46869915     0.00000000
       -2.23438462    -2.23438959     5.70305397
PRIMCOORD
6 1
Ti     -0.00019679     3.35169362     1.42576334    -0.00138814     0.00138814     0.00000000
Ti      2.23450124    -1.11738419     4.27729026     0.00138814    -0.00138814     0.00000000
O       0.00004464     1.11716720     0.92898083    -0.00030930    -0.00254899    -1.28468817
O       2.23425969     1.11714211     4.77407283     0.00030930     0.00254899     1.28468817
O      -0.00002524    -1.11714780     3.78050775    -0.00254899    -0.00030930    -1.28468817
O       2.23432951     3.35145704     1.92254591     0.00254899     0.00030930     1.28468817
