# total energy = -39032.73758656 eV

CRYSTAL
PRIMVEC
        5.93200024     0.00000000     0.00000000
        0.00000000     9.29399984     0.00000000
        0.00000000     0.00000000     9.29399984
PRIMCOORD
46 1
Ti      4.45437998     7.07220698     6.78701299    -0.68899600     1.49863591     0.40150130
Ti      4.47415502     6.79748202     2.36194598     1.20326953     0.39088367     0.84395104
Ti      4.47206101     2.12790798     7.18019798    -1.58926810    -0.30146839    -1.21871312
Ti      4.36324698     2.66159498     1.93031298    -0.92501513    -1.39239197     1.32775776
Ti      1.48267401     6.80921700     7.23028498     1.71388540     0.65022015    -1.82560039
Ti      1.51934700     7.16434102     2.15388402    -0.22405013    -0.24337017     0.47929597
Ti      1.47948900     2.33198402     6.60835698     0.99314759     2.07366360     2.29440035
Ti      1.40997802     2.09656899     2.70775802     1.04907321    -0.32792685    -0.91169526
Ti      2.87008098     4.74059402     4.65110702     0.92941840    -0.54341391     0.30714513
Ti      2.93245801     4.67452798     9.01496901    -0.48416282    -0.24666504     0.94795966
Ti      2.95403399     9.22729699     4.60483201     2.84680438    -0.92048381    -0.75483529
Ti      2.92035498     9.25701802     0.04541500     0.73301407     1.45926536    -0.46935608
Ti      5.86857602     4.68118001     4.73437502    -0.15722405    -0.35947661    -0.91529250
Ti      5.92679102     4.79733801     9.10412702     1.13895644    -0.67565454     1.53956455
Ti      0.07753701     9.15541800     4.92614700    -3.42779318    -1.62363502    -1.22958683
Ti      5.92136399     0.01726801     9.26405200    -0.50055026     0.46418354     0.76784405
O       4.58576602     5.70534299     5.51538201    -1.82962571     0.30264184     1.21526013
O       4.46066603     5.27672201     1.02435200     0.10525509     0.36392462     0.37906611
O       4.38594900     0.57015398     5.85014700     0.47166956     1.32231550    -1.13352396
O       4.60398501     1.13235798     0.80104402    -1.05217422     0.44754798     0.02783040
O       1.52394401     5.40665799     5.92747101     0.00130689     0.83302873    -1.39299490
O       1.59160001     5.50446799     0.79166800    -0.74830545     0.46263393     0.75770952
O       1.44736302     1.05488199     5.29307100     1.18755211     0.22186340    -1.18863326
O       1.32167601     0.92499400     0.97763798     0.72525911     0.26078452     0.86429696
O       4.33788600     8.53774702     8.28486798     0.79118941    -0.77748260     0.86860227
O       4.65555201     8.35913398     3.80409798    -1.14374924     0.32427845     0.15110713
O       4.51383903     3.67526401     8.41509300     0.14751916    -0.73386691     0.49305755
O       4.30710900     3.89182001     3.80718102     0.27955641    -0.41295892    -0.80411975
O       1.50338098     8.37110000     8.55214001    -0.22668834    -1.45383494    -0.72231082
O       1.43653499     8.26589999     3.76198399     0.62163050     1.63348955    -0.01779924
O       1.49814599     4.12682900     8.00814601    -0.89770614    -2.16526741     1.01743732
O       1.50328102     3.67356800     4.08075698     0.28835421    -0.82155313    -1.65003615
O       3.12838700     6.15181899     8.02652100     0.94411637     1.23638818    -1.25596816
O       2.84978899     6.19734898     3.07818602     0.42068431    -1.67939661     1.73653015
O       2.78688902     1.24226000     7.90440298     0.40496612     2.57087014    -1.19794091
O       3.25189998     1.42314300     2.98382101    -0.83061755     0.66975180     0.83258625
O       5.85349299     6.20855499     7.99581798    -1.51674780     0.28714271     0.17761059
O       0.01688298     5.98937099     3.34528702     0.08461144     0.74918349    -1.58543639
O       0.07054600     1.25213498     7.78675200     0.80387319     1.26823927    -0.77691233
O       2.92930999     7.86849100     6.06507202    -0.85230482    -0.56456998     0.07107020
O       3.04542201     8.15940899     1.58772601    -0.15625525    -1.40381719    -0.14962283
O       3.10665300     3.24656101     6.14310799    -0.51690943    -1.05399868     0.04246101
O       0.23782099     7.71744201     5.99089899    -0.23461017    -0.13502436     1.69640807
O       5.83866502     7.89509999     1.48180298    -0.15689494    -0.59406749    -0.80294527
O       5.80662699     3.23943802     5.98758899     0.04427853    -1.90109135     1.49441621
O       0.18957500     3.10926999     1.82425702     0.23025780     0.84048082    -0.73154623
