# total energy = -19073.59011454 eV

CRYSTAL
PRIMVEC
        7.60600008     0.00000000     0.00000000
        0.00000000     7.60600008     0.00000000
       -1.89786986    -1.89786986     4.85670466
PRIMCOORD
22 1
Ti      3.80475601     6.70039201     1.30590499     1.15022688    -1.08266135    -1.46010046
Ti      3.69849002     2.73687902     1.27328598     2.55617037     1.06915045     2.61652730
Ti      0.27811403     6.79048698     1.12370800    -2.34835034    -1.96144596    -1.31341023
Ti      0.19780000     2.78465901     0.90425099    -2.29372775     1.51997607     1.67200160
Ti      5.78768524     2.94227324     3.35522581     0.49850032     0.57108490     1.00201635
Ti      5.91748121    -0.96861477     3.43257983     0.66306461     0.63906618    -0.44972802
Ti      1.90228622     2.67661822     3.84446579    -0.07715266     2.94452871    -0.67742526
Ti      1.12274722    -0.82835279     3.98590381     1.41897462    -2.93621555    -1.35418203
O       3.65739200     4.59648201     0.96758002     0.19384222     0.96665647     0.00734796
O       4.15574901     0.83830101     0.78698600    -1.84681097     0.49366356     0.92310145
O       0.11208302     4.88745002     0.61404998     1.06408666    -0.46918254     0.11117531
O      -0.24115200     0.99884201     0.74266598     1.46252861     0.45595806    -0.32596047
O       5.62540225     4.91040821     3.88811979     0.31909973    -1.18550294    -0.43132920
O       5.86371521     0.92960224     3.89219181     0.18992772     0.19985424    -0.43648015
O       1.77990821     4.60069024     4.26986381    -0.61293759     0.86407636     0.26360836
O       1.76747921     0.86637323     4.24052480    -0.72668375    -0.28332873    -1.05514179
O       3.80394521     2.72358625     3.38754081    -0.58744895    -0.13487112    -0.99885158
O       0.01087623     2.94289820     3.17251879     0.77118828    -0.45292159     0.09443640
O       5.95548899     6.68161199     1.47168998    -1.62604852    -0.56638801     2.06663086
O       5.76374902     2.90288298     1.41096001    -0.58966962     0.24673009     1.32702885
O       1.84382700    -0.79882899     2.25713603     0.99175996    -0.19113665    -0.98577726
O       1.92882001     2.67138698     1.74098701    -0.57054034    -0.70709040    -0.59548828
