# total energy = -19933.82674222 eV

CRYSTAL
PRIMVEC
        7.04937503     0.00000000     0.00000000
        0.00002774     5.00177778     0.00000000
        0.00000000     0.00000000    10.95211049
PRIMCOORD
24 1
Ti      2.55507595     2.96404886     4.06315488     0.51455430    -0.23444587     0.95257196
Ti      4.49432695     2.03772892     6.88895574    -0.51455430     0.23444587    -0.95257196
Ti      6.07964194     2.03773066     1.41285665     0.51429024     0.23465542    -0.95302036
Ti      0.96976095     2.96404736     9.53925403    -0.51429024    -0.23465542     0.95302036
Ti      2.55506207     0.46316009     1.41290055     0.51499704    -0.23896587    -0.95216521
Ti      4.49434082     4.53861787     9.53921012    -0.51499704     0.23896587     0.95216521
Ti      0.96974708     0.46315823     6.88891177    -0.51451161    -0.23834161    -0.95216701
Ti      6.07965581     4.53861973     4.06319878     0.51451161     0.23834161     0.95216701
O       2.23118153     1.76121101     5.58877817     0.91540100     1.04633062    -1.02327655
O       4.81822136     3.24056683     5.36333244    -0.91540100    -1.04633062     1.02327655
O       1.29356688     1.76123116     0.11275812    -0.91526473     1.04653451    -1.02385505
O       5.75583613     3.24054667    10.83935213     0.91526473    -1.04653451     1.02385505
O       4.81820755     0.73967788     0.11272256    -0.91531512    -1.04719322    -1.02376429
O       2.23119534     4.26209990    10.83938769     0.91531512     1.04719322     1.02376429
O       5.75582226     0.73965779     5.58881367     0.91524879    -1.04673942    -1.02360077
O       1.29358057     4.26212011     5.36329689    -0.91524879     1.04673942     1.02360077
O       0.25613711     3.04236478     2.95843829    -1.63658439     0.46353536     0.40940899
O       6.79326578     1.95941306     7.99367232     1.63658439    -0.46353536    -0.40940899
O       3.78083251     1.95936642     2.51765185    -1.63705747    -0.46278126    -0.40910740
O       3.26857038     3.04241142     8.43445858     1.63705747     0.46278126     0.40910740
O       0.25612324     0.54147583     2.51761683    -1.63747399     0.46306022    -0.40884875
O       6.79327965     4.46030195     8.43449354     1.63747399    -0.46306022     0.40884875
O       3.26855657     0.54152247     7.99370721     1.63701659     0.46310213    -0.40944165
O       3.78084632     4.46025537     2.95840334    -1.63701659    -0.46310213     0.40944165
