# total energy = -19928.01987805 eV

CRYSTAL
PRIMVEC
        5.68297635     0.00000000     0.00000000
        0.00002237     4.03227019     0.00000000
        0.00000000     0.00000000     8.82923445
PRIMCOORD
24 1
Ti      2.05981893     2.38951957     3.27558301    -0.77075094     2.99376689    -5.21313265
Ti      3.62317987     1.64275063     5.55365154     0.77075094    -2.99376689     5.21313265
Ti      4.90120914     1.64275203     1.13899897    -0.76739307    -2.99409882     5.22235674
Ti      0.78178967     2.38951835     7.69023562     0.76739307     2.99409882    -5.22235674
Ti      2.05980775     0.37338457     1.13903436    -0.77045295     2.99343651     5.21931333
Ti      3.62319106     3.65888577     7.69020023     0.77045295    -2.99343651    -5.21931333
Ti      0.78177849     0.37338307     5.55361610     0.76737508     2.99381857     5.21603003
Ti      4.90122032     3.65888727     3.27561840    -0.76737508    -2.99381857    -5.21603003
O       1.79870582     1.41983090     4.50549077     1.99123246    -3.32371925     4.38306326
O       3.88429299     2.61243934     4.32374377    -1.99123246     3.32371925    -4.38306326
O       1.04283145     1.41984715     0.09090192    -1.99029427    -3.32529380     4.38461286
O       4.64016745     2.61242309     8.73833233     1.99029427     3.32529380    -4.38461286
O       3.88428186     0.59630420     0.09087326    -1.99047964     3.32409361     4.38344635
O       1.79871695     3.43596600     8.73836100     1.99047964    -3.32409361    -4.38344635
O       4.64015627     0.59628799     4.50551939     1.98975742     3.32543778     4.38414132
O       1.04284249     3.43598229     4.32371511    -1.98975742    -3.32543778    -4.38414132
O       0.20648939     2.45265531     2.38499651     3.16217190    -0.92045322     1.99146669
O       5.47650942     1.57961493     6.44423803    -3.16217190     0.92045322    -1.99146669
O       3.04798392     1.57957733     2.02964885     3.16312398     0.92078540    -1.99148777
O       2.63501489     2.45269291     6.79958555    -3.16312398    -0.92078540     1.99148777
O       0.20647821     0.43652016     2.02962062     3.16249868    -0.92048844    -1.99178062
O       5.47652060     3.59575003     6.79961373    -3.16249868     0.92048844     1.99178062
O       2.63500375     0.43655776     6.44426617    -3.16352404    -0.92089288    -1.99185261
O       3.04799505     3.59571248     2.38496833     3.16352404     0.92089288     1.99185261
