# total energy = -39036.42792929 eV

CRYSTAL
PRIMVEC
        7.60600008     0.00000000     0.00000000
        0.00000000     7.60600008     0.00000000
       -3.79573973    -3.79573973     9.71340985
PRIMCOORD
46 1
Ti      1.92657847     4.90684743     6.30455060    -0.43053627     0.67561340    -1.77891814
Ti      3.94375802     6.69824800     1.25171798    -0.79935061     0.97724711     0.21923676
Ti      1.82955943     0.99387743     5.99629364     0.50617250    -0.59954780     1.58971984
Ti      3.83474099     2.91158101     1.20518298     0.24146730    -1.87059214    -1.51125952
Ti     -1.95469556     4.81214444     6.08370462     0.12752008    -0.30211476    -0.56041225
Ti      0.12751298     6.53310199     1.28030297     0.40295295     0.95966153    -1.65530177
Ti     -2.01909554     1.07893844     6.00453361    -0.70599279    -0.08935410    -0.21828777
Ti      0.14289098     2.88489498     1.16001998    -0.32369507    -1.36033236     0.65667208
Ti      3.73765046     0.80838344     8.36096160    -0.78141485     0.68100063     0.67788548
Ti      5.64511600     2.87640200     3.45683499     0.62893449     0.22208915     2.25141149
Ti      3.78617744    -2.92751454     8.57521764     0.51673819    -1.04094775     0.66833795
Ti      5.77456599    -0.83766499     3.68109999    -0.38172746    -0.59618119     0.23469964
Ti     -0.06723155     0.86924645     8.25946964     0.26534669    -1.04055026     1.32098727
Ti      1.94412398     2.88399199     3.58052202    -0.87909881     0.29997226    -1.12692239
Ti     -0.09199455    -3.00044257     8.50924162    -0.32106046     0.47186908     1.61319068
Ti      1.97481203    -1.01058101     3.72332801     0.32274324    -0.08799347     1.30240230
O       1.91541945    -0.81417354     5.91449262     0.08098181    -2.12963140    -1.59687651
O       3.90384101     0.93902201     0.90692302    -0.13128135    -0.45954784    -1.61040721
O      -2.04687554     2.89841747     5.57729665     0.71124453     0.57088667     0.42248229
O      -0.15174999     4.59638300     0.58694398     0.48334521     1.77141952     1.11291167
O      -1.99488753    -0.80563855     5.65388463     0.15544741    -1.39987337    -0.42098385
O       0.20413198     0.90822099     0.88560400    -0.40155735    -0.36056727    -0.01489826
O       3.86056945     2.79448346     8.96909760    -0.07460084    -0.55923031     0.14094613
O       5.67689601     4.84981901     4.14033302    -0.03741394    -0.51616612    -0.56690609
O       3.59868344    -1.12569855     8.92199162    -0.11897964     1.47103536    -0.23068229
O       5.61481299     1.02526198     3.96501200     0.81892237    -0.06577090     0.27405707
O      -0.19847454     2.55390043     8.97090760     0.19309866     1.79945715     0.30878369
O       1.99824701     4.54311798     4.30993502     0.21020602     1.49455840    -0.30068934
O      -0.02786457    -0.87081154     8.95899063     0.19435259    -0.24047408     0.03389204
O       1.96572198     1.13136598     4.19920701    -0.52720413    -0.66662353    -1.50590751
O       1.85469043     0.94499642     7.98270062    -0.18623587     0.28872059     0.59672678
O       3.71134702     2.51464802     3.05951400     1.58825586     1.25534827     1.20126227
O       1.84550444    -2.91388055     8.10695763    -0.56086528    -0.57562290     1.72073971
O       3.83688300    -0.83547600     3.31328798    -0.18934819    -0.61342070    -0.73026119
O      -2.12199056     0.50090945     7.92927664     1.57839927     1.20139673    -0.30494195
O      -0.01407701     2.81908501     3.13288701     0.94213097     0.17966284     0.08047967
O      -1.96662957    -2.69318554     8.19311563     0.96226194    -0.51137692    -0.59171442
O       0.13834699    -0.94373301     3.36886001    -0.42103810    -0.09701239    -0.61779030
O       3.76013944     4.54580842     6.57901865     0.22948621     0.43312666    -0.27953352
O       5.80064898     6.59672000     1.66119402    -0.18708639    -0.31610517     0.27166235
O       3.69720544     1.18693547     6.31184563     0.30116859     0.26969777     0.70423647
O       5.72874199     2.91601499     1.65530200    -0.40476069     0.55723951    -1.47268576
O      -0.04945955     4.70906543     6.55102163    -0.29653212    -0.18961456    -0.22507060
O       1.98989400     6.56865403     1.50626600    -0.12787361    -0.82765487     1.40490400
O      -0.03227156     1.01290743     6.43885960    -1.24875004     0.77156906    -1.33436241
O       2.04436200     3.24579598     1.56539002    -1.92477225     0.16473450    -0.15281537
