# total energy = -19518.16227626 eV

CRYSTAL
PRIMVEC
        7.60600008     0.00000000     0.00000000
        0.00000000     7.60600008     0.00000000
       -1.89786986    -1.89786986     4.85670466
PRIMCOORD
23 1
Ti      3.77102001     6.58482399     1.25784998    -0.50038468    -0.49753899    -0.85615299
Ti      3.78074798     2.73149702     1.17622498     0.67372904     1.05500527     0.78212730
Ti     -0.07891901     6.71663299     1.08157998     0.55686130    -0.61984101     0.56428331
Ti     -0.02712298     2.86062701     1.15026899    -0.38320816     0.91046499     0.80958361
Ti      5.69113421     2.85828223     3.73653982    -0.27584656     0.59763027     0.01807949
Ti      5.69844924    -0.85123680     3.55858381     0.18194573    -0.46610595     0.24264204
Ti      2.13704523     2.82586621     3.70625882    -0.52487394     0.99494402     0.52894348
Ti      1.83826424    -0.99845777     3.60173282     0.13479219    -0.93876771    -0.61918949
O       3.98093399     4.67374798     0.87392803    -0.52949267     0.60139437    -0.02400640
O       3.50365802     0.91269000     0.63967697     0.07834977     0.53901964     1.38899863
O      -0.34312901     4.77632602     0.88671602     0.81622271     0.61524773    -0.40855179
O       0.05301800     1.08059598     0.75734398     0.30774034    -2.31944650    -0.21330677
O       5.87332523     4.69895920     3.95390880     0.00063866     1.16028092     1.05118486
O       5.55878021     0.98047321     4.06730180     0.84652292    -0.23226969    -0.20504581
O       1.96962122     4.73441021     4.01192980    -0.50142984    -0.20164038     0.74173371
O       2.18560724     0.95350120     4.09170179    -0.99966765    -1.08568676     0.02755941
O       3.87534624     2.94857823     3.44070381    -0.06771568    -0.24223940    -1.55814077
O       3.83930224    -1.08002177     3.22703379    -0.87455592     0.09900345    -0.30300951
O      -0.02540776    -1.01925476     3.15147384     0.13490660     0.83208360    -0.25859034
O       5.60893298    -0.56257802     1.62089198     0.96850047    -0.46770029    -0.34838461
O       5.78468100     2.71535002     1.85743199    -0.21852739    -0.23993852    -0.99746267
O       1.84567399     6.44788498     1.50903503     0.10297221     0.68117830     0.56428459
O       1.81342402     3.05207800     1.83729002     0.07252108    -0.77507733    -0.92757903
