# total energy = -19960.85813344 eV

CRYSTAL
PRIMVEC
        7.60600008     0.00000000     0.00000000
        0.00000000     7.60600008     0.00000000
       -1.89786986    -1.89786986     4.85670466
PRIMCOORD
24 1
Ti      3.81711801     6.56758699     1.19134600    -0.88008431    -0.60432594     1.50316003
Ti      3.80253500     2.75809400     1.12777800    -1.56638245     1.32853680     1.10142964
Ti      0.05785701     6.73148102     1.27380298     0.29867745    -0.01979030    -0.51544518
Ti     -0.09173499     2.95436002     1.22532802     2.97074008    -0.38462509    -0.76612475
Ti      5.65435623     2.94783622     3.62368680     1.36589238    -1.31210848     0.56178702
Ti      5.69887824    -0.95431577     3.64206279    -0.24364014     1.38016586     0.83288578
Ti      1.95894121     2.80737622     3.66662180    -1.12277957    -0.66662816    -1.77873251
Ti      1.85310020    -1.08485480     3.74773679     0.39854068     1.15026210    -1.76114718
O       3.66451002     4.66397000     0.79259301     1.35452244     2.16523013    -0.58115720
O       3.71132702     0.94695898     0.80861702     0.39643803    -2.52326230     0.25320362
O       0.08253800     4.80791298     0.70778600    -0.82516193     0.00095208     0.11175330
O      -0.03557500     0.96753303     0.82838100    -0.00110403     0.58205889    -0.24102533
O       5.75983623     4.81597823     4.07797382    -0.28991641    -0.41161526    -0.26521402
O       5.87618823     0.99846021     3.88928980    -0.83997174    -0.21177953     1.00169034
O       1.83652520     4.66440821     3.96125484     0.58922482     0.28481766     1.66934797
O       1.81790922     0.83353820     4.09766483     0.53579136     1.36839046    -0.93235846
O       3.82180922     2.77771822     3.13179680    -0.02802863    -0.04851159     1.14466532
O       3.73115624    -0.98849379     3.24399884     0.46057679    -0.07940084    -0.39752458
O       0.04943823     2.92415622     3.11832681     0.15347100    -0.18124998     0.57933918
O       0.04892720    -0.97216079     3.20234783    -0.43500819    -0.26009032     0.47626927
O       5.70115497     6.63554198     1.76546400    -0.88189077    -0.20924391    -1.87366436
O       5.78902099     2.94061300     1.63251399    -2.54523829     0.17607101    -0.70538447
O       1.88284298     6.64413502     1.59788299     1.03623775     0.05448350     0.02648494
O       1.96097198     3.10857301     1.59872702     0.09909370    -1.57833654     0.55576190
