# total energy = -19925.36021143 eV

CRYSTAL
PRIMVEC
        6.24457432     0.00000000     0.00000000
        0.66298826     6.61296430     0.00000000
        0.00000000     0.00000000    11.19044397
PRIMCOORD
24 1
Ti      2.65624414     3.91883656     4.15157500    -0.06992169    -1.34557243     0.70754960
Ti      4.25131864     2.69412780     7.03886936     0.06992169     1.34557243    -0.70754960
Ti      5.65564441     2.69413004     1.44360248     0.11637254     0.34579371    -0.49069008
Ti      1.25191839     3.91883463     9.74684207    -0.11637254    -0.34579371     0.49069008
Ti      2.32475014     0.61235447     1.44364737    -0.06992169    -1.34557243    -0.70754960
Ti      4.58281265     6.00061014     9.74679718     0.06992169     1.34557243     0.70754960
Ti      0.92042430     0.61235203     7.03882453    -0.11637254    -0.34579371    -0.49069008
Ti      5.98713843     6.00061252     4.15161989     0.11637254     0.34579371     0.49069008
O       2.20989671     2.32853716     5.71039805     1.59770132     1.64000010    -0.27592164
O       4.69766607     4.28442725     5.48004631    -1.59770132    -1.64000010     0.27592164
O       1.37932862     2.32856391     0.11521190    -1.16066942     0.86693954     0.36417247
O       5.52823423     4.28440057    11.07523220     1.16066942    -0.86693954    -0.36417247
O       4.36617206     0.97794491     0.11517562    -1.59770132    -1.64000010    -0.27592164
O       2.54139073     5.63501951    11.07526849     1.59770132     1.64000010     0.27592164
O       5.19674021     0.97791822     5.71043440     1.16066942    -0.86693954     0.36417247
O       1.71082251     5.63504620     5.48001002    -1.16066942     0.86693954    -0.36417247
O       0.63014685     4.02237991     3.02281817     0.45934909     0.43249468     0.85139953
O       6.27741587     2.59058452     8.16762619    -0.45934909    -0.43249468    -0.85139953
O       3.60889454     2.59052293     2.57243959     0.56238429     0.90935890     0.14687844
O       3.29866824     4.02244143     8.61800464    -0.56238429    -0.90935890    -0.14687844
O       0.29865284     0.71589756     2.57240382     0.45934909     0.43249468    -0.85139953
O       6.60890988     5.89706680     8.61804035    -0.45934909    -0.43249468     0.85139953
O       2.96717423     0.71595914     8.16766190    -0.56238429    -0.90935890     0.14687844
O       3.94038856     5.89700527     3.02278246     0.56238429     0.90935890    -0.14687844
