# total energy = -4984.84363106 eV

CRYSTAL
PRIMVEC
        3.91619296     0.00000000     0.00000000
        0.00000000     4.09072483     0.00000000
        0.00000000    -0.00007149     5.32646414
PRIMCOORD
6 1
Ti      1.95809631     2.04532661     2.66323201     0.00000000     0.00000000     0.00000000
Ti      0.00000000     0.00000000     0.00000000     0.00000000     0.00000000     0.00000000
O       1.95809631     0.79720807     1.03804939     0.00000000     0.55837028     1.03434259
O       1.95809631     3.29344514     4.28841458     0.00000000    -0.55837028    -1.03434259
O       0.00000000     1.24808993     3.70128257     0.00000000    -0.55769382     1.03459456
O       0.00000000     2.84256329     1.62518146     0.00000000     0.55769382    -1.03459456
