# total energy = -19072.82098715 eV

CRYSTAL
PRIMVEC
        5.93400000     0.00000000     0.00000000
        0.00000000     9.29699974     0.00000000
        0.00000000     0.00000000     4.64899994
PRIMCOORD
22 1
Ti      4.45840401     6.94130901     2.44631398    -1.92202708    -1.79521277     0.63098392
Ti      4.40899298     2.31361998     2.19021802     0.27455587    -0.09544041     0.14291688
Ti      1.46974700     7.21756001     2.56653602     1.57549161    -0.53201106     1.21670817
Ti      1.60530200     2.41073898     2.02252201    -0.60527699     0.60870016     0.56177956
Ti      2.98529900     4.64055301     4.44305601     0.04943770     0.77781916     1.03450585
Ti      3.00578599     9.27759900     0.06937900     0.57628522    -0.22670453    -0.22932269
Ti      5.80252200     4.49880298     4.32744502    -0.08190869    -0.63251347     0.58144028
Ti      0.02426997     9.09341499     0.38579900    -0.72091137     0.58564815    -0.91381051
O       4.37242403     5.45146899     0.85378399     0.07324047     0.27095272     0.97349561
O       4.43991498     0.63291298     1.09665100     0.77305285     2.43969807     0.79303161
O       1.51974102     0.63237502     1.24008900    -0.49238109     1.36499043    -0.59272486
O       4.48620798     8.23221198     4.00493699     0.01090842     1.37406155    -0.42547659
O       4.24300600     4.15232698     3.31485102     1.52870060    -2.55094794    -1.47625111
O       1.46042501     8.48027102     3.88858801    -0.41651861     0.32916458    -0.28022592
O       1.48881601     4.01145899     3.32685101    -0.13292351    -0.43378743     0.73661799
O       2.96262799     6.31808802     3.52670099    -1.55179632    -0.66332584    -0.44204222
O       2.94016902     1.61250098     3.14524002     0.68058643    -0.92718282     1.88492862
O       0.04399902     6.23842102     3.47722699     0.52656367    -1.03957864    -0.22526934
O       2.99252598     7.95808499     1.71282902    -0.08931604    -0.47485748    -1.38299150
O       3.10966402     2.86806799     0.99951100    -0.61922189     2.00891857    -1.13500363
O       5.85638902     7.87034698     1.70297103     0.87439549    -0.08364059    -0.95003377
O       0.05357401     3.22020798     1.17319999    -0.31093622    -0.30475014    -0.50325635
