# total energy = -19958.23421403 eV

CRYSTAL
PRIMVEC
        7.60600008     0.00000000     0.00000000
        0.00000000     7.60600008     0.00000000
       -1.89786986    -1.89786986     4.85670466
PRIMCOORD
24 1
Ti      3.83070702     6.71726298     1.34729898    -1.86104923     2.24708509     0.84617325
Ti      3.68829802     3.00603100     1.23375300     0.34024963    -1.36126490     1.05058734
Ti      0.04288601     6.41524300     1.23781502     0.67253630     0.96838271    -0.21792267
Ti      0.18508101     2.69836000     1.10989001    -1.49415422    -0.77117363     0.07795305
Ti      5.81829021     2.76339524     3.51072783     0.43446903    -0.21237629    -0.44829489
Ti      5.63433021    -1.08715375     3.63046884    -0.19614696    -0.04820563     2.16717954
Ti      1.96493525     2.99134025     3.83842380    -0.86568844     1.94058068    -3.41644844
Ti      1.74776821    -0.81115676     3.67369283    -0.06717087    -1.40067144    -0.34979743
O       3.30440998     5.04283101     0.75026100     1.92063303    -0.88537307     0.31291725
O       3.58525001     1.01487799     0.80450299     0.36261721     0.17807570    -0.04767933
O       0.02533002     4.62187300     0.84562599    -0.41546831     0.74563665    -1.25348293
O       0.43365599     0.74392299     0.68416702    -1.78939668     1.30657932     0.50749301
O       5.81421623     4.61225324     3.93035882    -0.77430343    -0.69772669     0.88028691
O       5.91769420     0.76618420     3.87741379    -0.85687444     1.83074260     1.66164803
O       1.88224622     4.94022524     3.61084483     0.27759337    -1.15050096     2.66715517
O       1.76307524     1.20679422     4.18284183     0.67367684    -2.25034422    -0.01083258
O       3.87289023     2.79841022     3.21432184    -1.51446697     0.23108287    -0.02272290
O       3.72013522    -0.85135777     3.31553582     0.24573816     0.24149198    -0.32321710
O       0.07370021     2.73742121     3.13184184    -0.18779010     0.00216333     0.03128802
O      -0.19624078    -1.05341579     3.12673581     3.45957280     0.21506772    -0.08047504
O       5.60168600     6.54818201     1.75877700    -0.03680073    -0.21155945    -3.31440492
O       5.73197399     2.82605999     1.54762898    -0.54274954     0.03963074    -0.06266166
O       1.86882401     6.70877402     1.78895100    -0.62148163     0.34206175    -0.75412361
O       1.81730602     3.20825699     1.63437198     2.83645492    -1.29938434     0.09938217
