# total energy = -19958.29433801 eV

CRYSTAL
PRIMVEC
        7.60600008     0.00000000     0.00000000
        0.00000000     7.60600008     0.00000000
       -1.89786986    -1.89786986     4.85670466
PRIMCOORD
24 1
Ti      3.67101202     6.53977799     1.37760401    -0.27352048     0.87331228    -1.29445888
Ti      3.79915800     2.94619201     1.27984402    -0.20480181    -1.62958430    -0.96467338
Ti     -0.08266601     6.60596298     1.10262102     0.42610600    -0.34474418     1.17603459
Ti      0.07611199     2.88516099     1.12138501    -0.03505341     0.26988854    -0.20455601
Ti      5.78975221     2.88826822     3.52731679    -0.10338590     0.77341203     1.55153201
Ti      5.75927520    -0.99198276     3.67715280     1.75297570    -0.51158570    -0.19041880
Ti      1.82834920     2.94156023     3.66705483    -0.04696507     0.04156601     0.53287547
Ti      1.85929925    -0.95846076     3.67649683    -1.27993651    -0.08329709     0.71292912
O       3.69833201     4.75668598     0.76222400     0.45772390     0.34363372    -0.42461682
O       3.53872702     1.06005199     0.77581602     1.07196761    -0.69198028     1.67820902
O       0.05248899     4.76249899     0.73016702    -0.58356324    -0.44543145    -0.75394954
O       0.29130001     0.87876000     0.73264199    -1.36678532     1.22687535     0.09426079
O      -1.37941877     4.76734022     4.11759380    -1.58549244    -0.93410295    -1.17705815
O       6.00058923     0.98647223     4.10236583    -1.54050814    -0.99325249    -1.68065286
O       1.49910422     4.81271320     4.25703883     1.06746689    -1.73078681    -0.27891903
O       1.74238023     0.93269321     4.05198482     1.34110153     1.21100855    -0.41846159
O       3.89182424     3.18716324     3.43914983    -1.47445519    -1.06066169    -2.00002615
O       3.82468223    -1.32800280     3.40894979    -0.08847401     1.21507604    -1.07248106
O       0.00886425     2.71118524     3.18900182     1.61359975     0.40244001    -1.10309468
O       0.01873721    -1.12015976     3.06149682    -1.87713972     1.53566187     0.77467676
O       5.67157502     6.54585702     1.48061598    -1.31608906     0.71986621     0.90916350
O       5.74888301     3.13052498     1.48190998    -0.80686107    -1.26013824     1.18964807
O       1.74112000     6.30525102     1.74196202     3.96517245     1.00322631    -0.08146209
O       1.89525599     2.99411102     1.32780700     0.88691728     0.06959722     3.02549972
