# total energy = -19074.90371475 eV

CRYSTAL
PRIMVEC
        5.17600016     0.00000000     0.00000000
        0.00000000     5.50899976     0.00000000
        0.00000000     0.00000000     9.26300011
PRIMCOORD
22 1
Ti      1.88349402     3.44665399     3.30060001    -0.18306236    -0.06952240    -0.31322502
Ti      3.46844799     2.24638701     5.91807298     0.31982093     0.39247930    -0.61093368
Ti      4.34980699     2.24744801     1.15813399     1.07610735    -0.03454150    -0.15294521
Ti      0.72420500     3.22482399     8.07650200     1.37138297    -0.29578804     1.02639402
Ti      1.80739701     0.48953002     1.34746398    -0.70553257     0.65379347    -1.86861908
Ti      3.26431999     4.95955799     8.15000102    -0.86097252     0.36646770    -0.18767132
Ti      0.65736298     0.36097302     6.06844902     0.69175273     0.11081870    -1.66378796
Ti      4.44102699     5.01718100     3.36282099     0.75241896     0.21393232     1.18423461
O       3.54136899     3.36374498     4.24372399    -0.51388452     0.04597648     2.03648698
O       0.90045198     1.83642498     0.17134003    -0.56450699     0.56748433    -1.70861927
O       4.30514099     3.64075498     9.03464901    -0.09968582    -0.48775233     0.29100399
O       3.44710998     0.72258503     0.27055002     0.59465447     0.56857602    -1.05742802
O       1.69053102     4.55395198     9.18760399    -0.67974876     0.64075771     0.17885346
O       4.15087497     0.83708602     4.67404903     0.27153662    -0.88287550     0.49170875
O       0.91087502     4.77966302     4.38470602     0.74688029    -0.31136045     1.36669816
O       0.24950400     3.54022200     2.27390200    -0.36265192    -0.25380140     0.31628154
O       0.12087599     2.15521098     6.48247598    -0.04314955    -0.13113351     0.60739224
O       2.70877299     2.06521000     2.08893799    -0.67514263     0.16632087     1.10176851
O       2.40363499     3.52216202     7.13341601     0.15449199    -0.68002619    -1.64888738
O       0.07390400     0.81986500     2.15699902     0.40676307    -0.96241852     0.97425048
O       2.59359602     0.77766502     6.79730702    -1.30041432    -0.40556056    -0.12515415
O       2.82776003     4.72713101     2.36495801    -0.39705767     0.78817351    -0.23780116
