# total energy = -19921.83849024 eV

CRYSTAL
PRIMVEC
        7.61611987     0.00000000     0.00000000
        0.00002549     3.90281889     0.00000000
        0.00000000     0.00000000    11.50674687
PRIMCOORD
24 1
Ti      2.76049237     2.31280694     4.26892102     0.07361431     0.08161867     2.09764840
Ti      4.85565316     1.59001213     7.23782597    -0.07361431    -0.08161867    -2.09764840
Ti      6.56842194     1.59001352     1.48440650     0.07433345    -0.08174568    -2.09721903
Ti      1.04772366     2.31280572    10.02234066    -0.07433345     0.08174568     2.09721903
Ti      2.76047968     0.36139755     1.48445265     0.07361431     0.08161867    -2.09764840
Ti      4.85566591     3.54142164    10.02229452    -0.07361431    -0.08161867     2.09764840
Ti      1.04771091     0.36139605     7.23777982    -0.07433345     0.08174568    -2.09721903
Ti      6.56843463     3.54142314     4.26896717     0.07433345    -0.08174568     2.09721903
O       2.41055909     1.37424894     5.87180486     2.21244023     0.56844181    -1.00587686
O       5.20558650     2.52857013     5.63494213    -2.21244023    -0.56844181     1.00587686
O       1.39756352     1.37426464     0.11846840    -2.21254308     0.56874031    -1.00755811
O       6.21858213     2.52855443    11.38827824     2.21254308    -0.56874031     1.00755811
O       5.20557375     0.57716068     0.11843108    -2.21244023    -0.56844181    -1.00587686
O       2.41057178     3.32565838    11.38831562     2.21244023     0.56844181     1.00587686
O       6.21856944     0.57714498     5.87184218     2.21254308    -0.56874031    -1.00755811
O       1.39757604     3.32567415     5.63490481    -2.21254308     0.56874031     1.00755811
O       0.27672687     2.37391573     3.10825939    -1.45571467     0.46543746     0.44208721
O       7.33941867     1.52890340     8.39848760     1.45571467    -0.46543746    -0.44208721
O       4.08479633     1.52886697     2.64515067    -1.45475616    -0.46556011    -0.44197383
O       3.53134920     2.37395216     8.86159614     1.45475616     0.46556011     0.44197383
O       0.27671418     0.42250622     2.64511393    -1.45571467     0.46543746    -0.44208721
O       7.33943142     3.48031285     8.86163288     1.45571467    -0.46543746     0.44208721
O       3.53133651     0.42254265     8.39852428     1.45475616     0.46556011    -0.44197383
O       4.08480908     3.48027641     3.10822265    -1.45475616    -0.46556011     0.44197383
