# total energy = -4990.44615534 eV

CRYSTAL
PRIMVEC
        3.72824968     0.00000000     0.00000000
        0.18628808     3.72359268     0.00000000
       -1.95730198    -1.86182782     4.75956434
PRIMCOORD
6 1
Ti      0.13956544     2.79283590     1.18989096     0.00140254    -0.00140254    -0.00000000
Ti      1.81766986    -0.93107150     3.56967313    -0.00140254     0.00140254    -0.00000000
O       0.04661124     0.93089208     0.77529411    -0.00018872     0.00029131     0.31843844
O       1.91062390     0.93087222     3.98427002     0.00018872    -0.00029131    -0.31843844
O      -0.04659285    -0.93087459     3.15507629     0.00029131    -0.00018872     0.31843844
O       2.00382799     2.79263884     1.60448790    -0.00029131     0.00018872    -0.31843844
