# total energy = -4990.40838292 eV

CRYSTAL
PRIMVEC
        2.93714455     0.00000000     0.00000000
        0.00000000     4.60206517     0.00000000
        0.00000000    -0.00005972     4.60206517
PRIMCOORD
6 1
Ti      1.46857222     2.30100267     2.30103253     0.00000000     0.00000000     0.00000000
Ti      0.00000000     0.00000000     0.00000000     0.00000000     0.00000000     0.00000000
O       1.46857222     0.89686307     0.89687471    -0.00000000     0.10974115     0.10974115
O       1.46857222     3.70514227     3.70519036     0.00000000    -0.10974115    -0.10974115
O       0.00000000     1.40411539     3.19790817     0.00000000    -0.10950924     0.10950924
O       0.00000000     3.19788995     1.40415689     0.00000000     0.10950924    -0.10950924
