# total energy = -19952.22159401 eV

CRYSTAL
PRIMVEC
        6.12032711     0.00000000     0.00000000
        0.00002846     5.32953745     0.00000000
        0.00000000     0.00000000    10.05880626
PRIMCOORD
24 1
Ti      2.21834106     3.15827885     3.73174551     0.17484588    -0.17750646     0.05613157
Ti      3.90201457     2.17125837     6.32706115    -0.17484588     0.17750646    -0.05613157
Ti      5.27839857     2.17126009     1.29761763     0.17610906     0.17651118    -0.05570966
Ti      0.84195705     3.15827729     8.76118914    -0.17610906    -0.17651118     0.05570966
Ti      2.21832706     0.49351024     1.29765796     0.17538041    -0.20490748    -0.05727160
Ti      3.90202857     4.83602715     8.76114881    -0.17538041     0.20490748     0.05727160
Ti      0.84194305     0.49350829     6.32702082    -0.17713133    -0.20498796    -0.05610921
Ti      5.27841257     4.83602905     3.73178584     0.17713133     0.20498796     0.05610921
O       1.93713221     1.87662066     5.13293200     0.85726036     0.67495391    -0.19586543
O       4.18322342     3.45291656     4.92587467    -0.85726036    -0.67495391     0.19586543
O       1.12308715     1.87664219     0.10356106    -0.85717012     0.67612942    -0.19741143
O       4.99726853     3.45289508     9.95524532     0.85717012    -0.67612942     0.19741143
O       4.18320941     0.78814778     0.10352841    -0.85617176    -0.67495520    -0.19533501
O       1.93714621     4.54138944     9.95527797     0.85617176     0.67495520     0.19533501
O       4.99725447     0.78812630     5.13296465     0.85590899    -0.67561648    -0.19640459
O       1.12310104     4.54141097     4.92584201    -0.85590899     0.67561648     0.19640459
O       0.22238284     3.24172681     2.71713462    -0.37048248    -0.05270172     0.18517786
O       5.89797278     2.08781040     7.34167205     0.37048248     0.05270172    -0.18517786
O       3.28255252     2.08776087     2.31230071    -0.36876344     0.05337355    -0.18448495
O       2.83780311     3.24177635     7.74650578     0.36876344    -0.05337355     0.18448495
O       0.22236878     0.57695803     2.31226857    -0.36995437    -0.05259425    -0.18469938
O       5.89798684     4.75257918     7.74653792     0.36995437     0.05259425     0.18469938
O       2.83778905     0.57700757     7.34170413     0.37008627    -0.05246749    -0.18662359
O       3.28256658     4.75252965     2.71710248    -0.37008627     0.05246749     0.18662359
