# total energy = -19924.95375603 eV

CRYSTAL
PRIMVEC
        6.13530726     0.00000000     0.00000000
        3.07288368     5.76159451     0.00000000
        0.00000000     0.00000000    11.36317650
PRIMCOORD
24 1
Ti      4.04474184     3.41431558     4.21565745     0.68479635    -2.93104969     0.57048352
Ti      5.16344926     2.34727908     7.14751917    -0.68479635     2.93104969    -0.57048352
Ti      6.54320314     2.34728113     1.46588546    -1.90526297    -1.15680145     0.76638880
Ti      2.66498815     3.41431379     9.89729122     1.90526297     1.15680145    -0.76638880
Ti      2.50830024     0.53351851     1.46593104     0.68479635    -2.93104969    -0.57048352
Ti      6.69989098     5.22807637     9.89724570    -0.68479635     2.93104969     0.57048352
Ti      1.12854625     0.53351630     7.14747358     1.90526297     1.15680145     0.76638880
Ti      8.07964495     5.22807852     4.21570297    -1.90526297    -1.15680145    -0.76638880
O       3.02387813     2.02875542     5.79854201     1.71150765     2.05862084    -1.09175894
O       6.18431305     3.73283929     5.56463461    -1.71150765    -2.05862084     1.09175894
O       2.20785304     2.02877861     0.11699028     0.61955922    -1.32036712     1.66148939
O       7.00033821     3.73281614    11.24618598    -0.61955922     1.32036712    -1.66148939
O       4.64787133     0.85204200     0.11695340    -1.71150765    -2.05862084    -1.09175894
O       4.56031983     4.90955264    11.24622286     1.71150765     2.05862084     1.09175894
O       5.46389649     0.85201885     5.79857883    -0.61955922     1.32036712     1.66148939
O       3.74429463     4.90957586     5.56459773     0.61955922    -1.32036712    -1.66148939
O       2.09201193     3.50452835     3.06947746     0.68386356     2.94732375     2.74838869
O       7.11617925     2.25706635     8.29369910    -0.68386356    -2.94732375    -2.74838869
O       4.49432886     2.25701254     2.61214694     0.85795893     1.86963749     1.57053195
O       4.71386232     3.50458216     8.75102944    -0.85795893    -1.86963749    -1.57053195
O       0.55557020     0.62373107     2.61211067     0.68386356     2.94732375    -2.74838869
O       8.65262096     5.13786358     8.75106571    -0.68386356    -2.94732375     2.74838869
O       3.17742060     0.62378488     8.29373531    -0.85795893    -1.86963749     1.57053195
O       6.03077057     5.13780977     3.06944119     0.85795893     1.86963749    -1.57053195
