# total energy = -19073.63069272 eV

CRYSTAL
PRIMVEC
        7.60600008     0.00000000     0.00000000
        0.00000000     7.60600008     0.00000000
       -1.89786986    -1.89786986     4.85670466
PRIMCOORD
22 1
Ti      3.70279001     6.74753298     1.00131200     0.25220474    -0.11708165    -0.91716863
Ti      3.99321799     2.88911299     1.16290400     1.46862830     1.22903867     0.87816807
Ti     -0.14556999     6.61062302     1.13663802    -0.57411135    -0.87463511     1.60421830
Ti      0.21347698     2.69586201     1.18586299    -1.36636854     1.13259013    -0.65598148
Ti      5.93020522     2.76947422     3.59887182    -0.42013770     0.29965293     0.16654533
Ti      5.54753720    -1.15443377     3.72178181     1.54039013     0.13606077    -2.32604061
Ti      2.09788521     2.81954021     3.53747779     0.52117643     0.48748880     1.35525520
Ti      1.05131020    -0.52948878     3.85394981     0.74589453    -2.22451002    -0.91267203
O       3.95774401     4.87124000     0.76658400    -1.03740966     0.04636961    -1.23635038
O       3.91536803     1.03664701     1.10569501    -0.92400854    -0.95446584    -0.86389895
O       0.01841600     4.61871899     0.84067998     0.53546637    -0.46205338    -0.96333229
O       6.89066198     0.92276601     0.60587202     0.49821416    -1.01206294     1.61983493
O       5.95864321     4.60220925     4.15983379     0.23583247     0.33285720    -1.25507522
O      -1.21356579     0.46592623     4.12286282     0.87387741     1.56977656     0.07431391
O       1.74352622     5.05601821     3.94191283    -0.32647109    -0.05052939     1.60863160
O       2.34601124     0.94865024     4.12639481    -0.97141713     0.26078349    -1.37418599
O       3.95270323     2.92129824     3.07476182     0.49837408    -0.03158987     2.43664900
O       0.19427923     2.54942121     3.22017480     0.75522892    -0.02220457    -0.50059089
O       5.55498500     6.41104297     1.71051498     0.09985294     1.05776072     1.13850059
O       5.92429600     3.02970200     1.67983598    -0.05146913    -0.55877626     0.52061953
O       1.60007902    -0.70712998     2.02415003    -0.40682863     0.24121173    -0.57125408
O       2.13707402     2.98364199     1.54290999    -1.94691923    -0.48568157     0.17381384
