# total energy = -19516.35623808 eV

CRYSTAL
PRIMVEC
        5.17600016     0.00000000     0.00000000
        0.00000000     5.50899976     0.00000000
        0.00000000     0.00000000     9.26300011
PRIMCOORD
23 1
Ti      1.96736401     3.19675802     3.37086702    -2.07635323    -1.20723751     3.97147294
Ti      3.40417000     2.28365400     5.82449000    -1.10729252     0.05194453    -2.12959952
Ti      4.31776600     2.21522201     1.45192500     0.75132239    -0.14040054    -1.85703523
Ti      0.66515300     3.38437400     7.88192099     1.37462076     4.11869873     1.91222732
Ti      2.09300800     0.14065701     1.57144302    -0.40419634    -0.60760487    -3.62581550
Ti      3.21807698     5.05166399     7.94032602    -1.01646416     1.15923654     1.89374108
Ti      0.68467302     0.60488198     5.92737502     0.54991803    -0.40806765    -3.03800402
Ti      4.58240701     4.95488498     3.28349901     1.10013277    -0.52633664     2.12155402
O       1.72016997     1.75786999     4.69034800     0.57406841     1.33836896     0.17080899
O       3.62942599     3.71073301     4.44170799    -0.81810862    -1.60970478     0.77282350
O       4.52417301     3.23991401     9.06579802    -1.23343783    -0.64310307     1.79009833
O       3.43343699     0.74169901     0.28544302     0.07653843     0.06130335    -0.31766043
O       1.55931401     4.68800100     9.22740500     1.45036240    -0.43148809    -0.75219785
O       4.35947501     0.71228999     4.72561402    -0.39176068     1.38979542     0.32092419
O       0.96316202     4.54086300     4.44662500     0.33203161     0.51677676    -0.29364786
O       0.31533402     3.42237401     2.33891301     0.39160075    -0.58011539    -0.00228365
O       5.09778099     2.21174198     6.83629299    -1.04152677    -2.17934292    -2.23908021
O       2.85119797     1.67395698     2.41349399    -0.26511966    -0.11005431     0.89404438
O       2.48575002     3.64848701     6.98200898    -0.17684594    -1.27152694    -0.07238609
O       0.36049301     0.70730498     1.88406098    -1.22831825     0.51896451     0.87035551
O       4.99517299     5.08657000     7.33120501     0.31626869    -0.64284391    -0.63035143
O       2.41994302     0.86843099     6.77990000     0.74190906    -0.77773817     1.69067373
O       2.95450703     4.09451998     2.16134600     2.10065068     1.98047625    -1.45066245
