# total energy = -19939.13311072 eV

CRYSTAL
PRIMVEC
        5.54845178     0.00000000     0.00000000
        2.77895567     5.21048547     0.00000000
        0.00000000     0.00000000    10.27626396
PRIMCOORD
24 1
Ti      3.65785349     3.08772887     3.81242065     2.28635279    -3.99885366     0.92856685
Ti      4.66955411     2.12275673     6.46384342    -2.28635279     3.99885366    -0.92856685
Ti      5.91733154     2.12275859     1.32567033    -5.02395672     0.05849750     1.24292469
Ti      2.41007624     3.08772725     8.95059380     5.02395672    -0.05849750    -1.24292469
Ti      2.26837587     0.48248631     1.32571155     2.28635279    -3.99885366    -0.92856685
Ti      6.05903184     4.72799950     8.95055264    -2.28635279     3.99885366     0.92856685
Ti      1.02059835     0.48248430     6.46380220     5.02395672    -0.05849750     1.24292469
Ti      7.30680935     4.72800145     3.81246182    -5.02395672     0.05849750    -1.24292469
O       2.73463761     1.83470055     5.24389886     1.00270952     1.74268640    -1.30622219
O       5.59277006     3.37578509     5.03236521    -1.00270952    -1.74268640     1.30622219
O       1.99666710     1.83472152     0.10579990     1.32244149    -1.00059993     0.55769639
O       6.33074064     3.37576416    10.17046384    -1.32244149     1.00059993    -0.55769639
O       4.20329233     0.77054233     0.10576655    -1.00270952    -1.74268640    -1.30622219
O       4.12411533     4.43994326    10.17049719     1.00270952     1.74268640     1.30622219
O       4.94126291     0.77052140     5.24393216    -1.32244149     1.00059993     0.55769639
O       3.38614471     4.43996426     5.03233186     1.32244149    -1.00059993    -0.55769639
O       1.89190644     3.16931259     2.77587527     0.62303792     1.12007503     1.14844562
O       6.43550124     2.04117305     7.50038875    -0.62303792    -1.12007503    -1.14844562
O       4.06443653     2.04112438     2.36228940     1.55492766     0.54105492    -0.21605168
O       4.26297114     3.16936126     7.91397445    -1.55492766    -0.54105492     0.21605168
O       0.50242871     0.56406983     2.36225660     0.62303792     1.12007503    -1.14844562
O       7.82497895     4.64641576     7.91400725    -0.62303792    -1.12007503     1.14844562
O       2.87349341     0.56411850     7.50042150    -1.55492766    -0.54105492    -0.21605168
O       5.45391425     4.64636709     2.77584247     1.55492766     0.54105492     0.21605168
