# total energy = -19902.15113183 eV

CRYSTAL
PRIMVEC
        8.29284928     0.00000000     0.00000000
        0.00002611     3.34783089     0.00000000
        0.00000000     0.00000000    12.83526306
PRIMCOORD
24 1
Ti      3.00577459     1.98392144     4.76179107    -0.03896303     0.04630610     2.14101830
Ti      5.28710103     1.36390933     8.07347210     0.03896303    -0.04630610    -2.14101830
Ti      7.15205769     1.36391047     1.65578924    -0.03824697    -0.04632075    -2.14237996
Ti      1.14081793     1.98392047    11.17947405     0.03824697     0.04632075     2.14237996
Ti      3.00576165     0.31000605     1.65584069    -0.03896303     0.04630610    -2.14101830
Ti      5.28711397     3.03782483    11.17942260     0.03896303    -0.04630610     2.14101830
Ti      1.14080499     0.31000485     8.07342065     0.03824697     0.04632075    -2.14237996
Ti      7.15207063     3.03782603     4.76184252    -0.03824697    -0.04632075     2.14237996
O       2.62474846     1.17882814     6.54973648     2.77669397     0.38928547    -1.31343105
O       5.66812722     2.16900263     6.28552670    -2.77669397    -0.38928547     1.31343105
O       1.52174324     1.17884163     0.13214623    -2.77586402     0.38933124    -1.31322357
O       6.77113250     2.16898914    12.70311659     2.77586402    -0.38933124     1.31322357
O       5.66811428     0.49508718     0.13210460    -2.77669397    -0.38928547    -1.31343105
O       2.62476134     2.85274359    12.70315822     2.77669397     0.38928547     1.31343105
O       6.77111956     0.49507370     6.54977817     2.77586402    -0.38933124    -1.31322357
O       1.52175600     2.85275713     6.28548500    -2.77586402     0.38933124     1.31322357
O       0.30131430     2.03634051     3.46712475    -1.20866242     0.33977501     0.61234367
O       7.99156132     1.31149026     9.36813843     1.20866242    -0.33977501    -0.61234367
O       4.44774986     1.31145914     2.95054760    -1.20939158    -0.33969505    -0.61208579
O       3.84512582     2.03637169     9.88471534     1.20939158     0.33969505     0.61208579
O       0.30130136     0.36242507     2.95050661    -1.20866242     0.33977501    -0.61234367
O       7.99157426     2.98540570     9.88475633     1.20866242    -0.33977501     0.61234367
O       3.84511288     0.36245619     9.36817930     1.20939158     0.33969505    -0.61208579
O       4.44776279     2.98537458     3.46708382    -1.20939158    -0.33969505     0.61208579
