# total energy = -4985.67568004 eV

CRYSTAL
PRIMVEC
        3.29786823     0.00000000     0.00000000
        1.98740973     4.76978301     0.00000000
       -0.00001267    -0.00006865     5.27804174
PRIMCOORD
6 1
Ti      2.64263255     2.38485702     2.63902081     0.00000000     0.00000000     0.00000000
Ti      0.00000000     0.00000000     0.00000000     0.00000000     0.00000000     0.00000000
O       2.03624845     0.92954696     1.02861257     0.48451069     0.16078528    -0.38590036
O       3.24901666     3.84016708     4.24942900    -0.48451069    -0.16078528     0.38590036
O       0.60637868     1.45528235     3.66763454    -0.48471355    -0.16012528    -0.38530335
O       1.38101836     3.31443190     1.61040708     0.48471355     0.16012528     0.38530335
