# total energy = -4988.47843044 eV

CRYSTAL
PRIMVEC
        4.09986587     0.00000000     0.00000000
        0.61153097     4.05400173     0.00000000
       -2.35573536    -2.02703266     5.24720326
PRIMCOORD
6 1
Ti      0.45849913     3.04065625     1.31180053     0.00001260    -0.00001260    -0.00000000
Ti      1.89716277    -1.01368681     3.93540216    -0.00001260     0.00001260     0.00000000
O       0.15292586     1.01349437     0.85472640    -0.00052451    -0.00152749    -0.97796033
O       2.20273586     1.01347492     4.39247630     0.00052451     0.00152749     0.97796033
O      -0.15290078    -1.01347278     3.47832803    -0.00152749    -0.00052451    -0.97796033
O       2.50856244     3.04044208     1.76887467     0.00152749     0.00052451     0.97796033
