# total energy = -19945.50301460 eV

CRYSTAL
PRIMVEC
        6.08668512     0.00000000     0.00000000
        0.00003029     5.86111405     0.00000000
        0.00000000     0.00000000    10.40107656
PRIMCOORD
24 1
Ti      2.20614859     3.47329070     3.85872531     0.13740263    -0.62124483     0.48418416
Ti      3.88056683     2.38782323     6.54235160    -0.13740263     0.62124483    -0.48418416
Ti      5.24938507     2.38782524     1.34177160     0.13797393     0.62136336    -0.48423609
Ti      0.83733040     3.47328898     9.05930549    -0.13797393    -0.62136336     0.48423609
Ti      2.20613350     0.54273380     1.34181332     0.13740263    -0.62124483    -0.48418416
Ti      3.88058197     5.31838031     9.05926377    -0.13740263     0.62124483     0.48418416
Ti      0.83731526     0.54273166     6.54230994    -0.13797393    -0.62136336    -0.48423609
Ti      5.24940016     5.31838250     3.85876703     0.13797393     0.62136336     0.48423609
O       1.92648496     2.06379782     5.30758989     1.04097115     1.06403575    -0.24595593
O       4.16023052     3.79731611     5.09348702    -1.04097115    -1.06403575     0.24595593
O       1.11691461     2.06382152     0.10708492    -1.04086034     1.06446924    -0.24658817
O       4.96980093     3.79729247    10.29399176     1.04086034    -1.06446924     0.24658817
O       4.16021537     0.86675902     0.10705119    -1.04097115    -1.06403575    -0.24595593
O       1.92650010     4.99435491    10.29402548     1.04097115     1.06403575     0.24595593
O       4.96978578     0.86673538     5.30762367     1.04086034    -1.06446924    -0.24658817
O       1.11692957     4.99437861     5.09345330    -1.04086034     1.06446924     0.24658817
O       0.22116188     3.56506183     2.80959033    -0.07320910    -0.13363725     0.16571769
O       5.86555360     2.29605216     7.59148658     0.07320910     0.13363725    -0.16571769
O       3.26450983     2.29599760     2.39098120    -0.07352252     0.13369459    -0.16597017
O       2.82220559     3.56511639     8.01009560     0.07352252    -0.13369459     0.16597017
O       0.22114673     0.63450475     2.39094795    -0.07320910    -0.13363725    -0.16571769
O       5.86556869     5.22660924     8.01012879     0.07320910     0.13363725     0.16571769
O       2.82219050     0.63455930     7.59151977     0.07352252    -0.13369459    -0.16597017
O       3.26452497     5.22655463     2.80955714    -0.07352252     0.13369459     0.16597017
