# total energy = -19517.83317211 eV

CRYSTAL
PRIMVEC
        5.93400000     0.00000000     0.00000000
        0.00000000     9.29699974     0.00000000
        0.00000000     0.00000000     4.64899994
PRIMCOORD
23 1
Ti      4.47763801     7.03580800     2.26338201    -0.10458686     0.84567600     0.07847498
Ti      4.42055799     2.30619102     2.33102801     1.65814310    -0.44793544     0.24788143
Ti      1.38196401     6.99218099     2.20478902     0.34652030     0.93753229    -0.05605393
Ti      1.49202901     2.31159498     2.35807802    -1.22432970     0.15495067     0.37338371
Ti      2.96854700     4.56800302     0.22088901     0.70877653    -0.53832878    -0.10592563
Ti      2.98010000     9.25936799     4.60799098     0.47435277    -0.35848468    -0.09626754
Ti      0.00827601     4.62375703     0.02248400    -0.59073637    -1.02763072    -0.24274797
Ti      0.04425001     0.04850799     4.61485399    -0.88303671    -0.18369125    -0.72353004
O       4.55077200     5.57048100     1.01439998    -1.11269673    -0.07636488    -0.91374932
O       4.43084001     0.97588000     0.85713300    -0.16623705    -0.41412003    -0.14968094
O       1.45177000     5.46216900     0.96714202     0.90640239     1.08690033    -0.09829485
O       1.46930397     0.83674999     0.78913700     0.54329641     1.31941504     1.25405269
O       4.44212403     8.39813202     3.74363202    -0.39066847    -0.58132535    -0.70652090
O       4.49860100     3.69824200     3.86284898    -0.68327863     0.69217542    -0.53489070
O       1.40513298     8.37833200     3.53136500     0.75377625     0.64207695     1.40367604
O       1.53550902     3.59873302     3.87460900     0.23704449     0.98908396    -0.57060359
O       2.97513002     1.46685198     3.20255600    -0.29212242    -0.95298977     0.33544810
O       0.00857500     6.20797703     3.12946001    -0.26502941    -1.65727792     1.59809522
O       5.89863302     1.46503701     3.18771798     0.83753717    -0.60943986     0.14124952
O       2.94560198     7.90772002     1.40686799     0.27320809    -0.30011110    -0.38006395
O       3.05646800     3.23875702     1.48547701    -1.39476896     0.72289626    -0.41288178
O       5.90313701     7.92779499     1.32046901    -0.04371417    -0.05890708    -0.31890150
O       0.00618100     3.30584198     1.48075600     0.41214850    -0.18410057    -0.12214930
