# total energy = -19959.13052490 eV

CRYSTAL
PRIMVEC
        7.60600008     0.00000000     0.00000000
        0.00000000     7.60600008     0.00000000
       -1.89786986    -1.89786986     4.85670466
PRIMCOORD
24 1
Ti      3.72289203     6.61125899     1.29020298     2.27819674    -0.43913970    -0.74305346
Ti      3.73605499     2.87343501     1.19493901     0.23954874    -0.11365154     0.06446684
Ti      0.11533201     6.66685498     1.28317302    -1.76134670    -0.08255738    -1.34623217
Ti     -0.01178499     2.95428498     1.12725798    -0.51485151    -0.42981173     0.06509650
Ti      5.73379225     2.83805924     3.64457279    -2.54210386     1.75061106    -0.09162618
Ti      5.86043024    -0.88334876     3.66306780     0.10719576    -1.33565439    -1.13727031
Ti      1.74201325     2.85643524     3.57869879     1.18599582    -0.14976527     0.78468504
Ti      2.01920021    -1.02146476     3.67104181    -0.60111643     0.52478112     2.12059937
O       3.65516199     4.70251400     0.84565398     0.60144116     1.79132449    -0.98142875
O       3.51870401     0.97283501     0.76783000     0.62605794    -1.69692383     0.78480511
O      -0.07992900     4.77899101     0.67199901    -0.58596003     0.03097743     0.76400307
O       0.11311100     0.95299399     0.64690702    -0.13144461    -0.06196335     2.63766357
O      -1.52730180     4.67135620     4.15857879    -0.73240600     0.45684638    -0.59385897
O       5.96959125     0.99100622     4.03290581    -0.90122239    -0.89594674     0.07297128
O       1.66053625     4.67433521     4.23920482     0.77167859     0.24755696    -1.13549831
O       1.69529124     0.88639423     4.11655180     0.46465688     0.77780193    -2.01518641
O       3.70708423     2.77081722     3.14209179     0.33186424    -0.18084658     0.59363683
O       3.92999925    -1.13349878     3.38413281    -1.40590493     0.50702790    -0.40811496
O      -0.17744980     2.64851621     3.11952381     2.33916327     0.46751055    -1.57865844
O       0.12900320    -1.01999476     3.29175883    -0.82807910     0.27198682    -1.32600195
O       5.73283602     6.51601401     1.67779600     0.53184986     0.88955780    -0.19762586
O       5.54655701     2.94428703     1.12831200     2.18588278    -0.43161253     1.82986945
O       1.94696698     6.45404699     1.69526901    -0.54330567     0.40118763     0.72497577
O       1.77314199     3.45574700     1.67196002    -1.11579054    -2.29929702     1.11178296
