# total energy = -4981.11063786 eV

CRYSTAL
PRIMVEC
        4.30187819     0.00000000     0.00000000
        0.00000000     2.55670295     0.00000000
        0.00000000    -0.00010206     5.82890381
PRIMCOORD
6 1
Ti      2.15093910     1.27830029     2.91445164     0.00000000     0.00000000     0.00000000
Ti      0.00000000     0.00000000     0.00000000     0.00000000     0.00000000     0.00000000
O       2.15093910     0.49824380     1.13596741     0.00000000    -0.44750401     1.65106896
O       2.15093910     2.05835677     4.69293587     0.00000000     0.44750401    -1.65106896
O       0.00000000     0.78001611     4.05042034     0.00000000     0.44741454     1.65175904
O       0.00000000     1.77658446     1.77848295     0.00000000    -0.44741454    -1.65175904
