# total energy = -4894.37836566 eV

CRYSTAL
PRIMVEC
        4.84521073     0.00000000     0.00000000
       -0.00000633     2.07651902     0.00000000
       -2.42263315    -1.03833463     5.25813470
PRIMCOORD
6 1
Ti     -0.00020703     1.55745375     1.31453363    -0.04980743    -0.04770864    91.74574197
Ti      2.42277803    -0.51926931     3.94360098     0.04980743     0.04770864   -91.74574197
O       0.00005148     0.51911703     0.85650717     0.04862369     0.04957989   -82.57396696
O       2.42251938     0.51906736     4.40162748    -0.04862369    -0.04957989    82.57396696
O      -0.00002026    -0.51915461     3.48557452    -0.00073354    -0.00127784     0.81882647
O       2.42259107     1.55733896     1.77256013     0.00073354     0.00127784    -0.81882647
