# total energy = -19962.16862448 eV

CRYSTAL
PRIMVEC
        7.60600008     0.00000000     0.00000000
        0.00000000     7.60600008     0.00000000
       -1.89786986    -1.89786986     4.85670466
PRIMCOORD
24 1
Ti      3.80802199     6.60714299     1.20407102    -0.37156260     0.28069489     0.55658465
Ti      3.78963699     2.84787098     1.21700703     0.30295757    -0.02816902    -0.05667408
Ti     -0.00736202     6.66870599     1.22393702     0.42101701     0.25947531    -0.56894857
Ti     -0.02034702     2.88237302     1.20524500    -0.11944733    -0.52428027     0.14524270
Ti      5.70086721     2.85974223     3.65652780     0.31309929     0.11910331    -0.12031765
Ti      5.72454625    -0.94676176     3.63009884    -0.26862947    -0.20205022     0.35410814
Ti      1.91091525     2.85224220     3.64017681    -0.28153641    -0.22552774    -0.35586678
Ti      1.89598822    -0.97346177     3.68053980     0.15264105     0.22365829    -1.03396001
O       3.73762501     4.76795502     0.74581400     0.29797554    -0.22336518     0.62099158
O       3.76754998     0.92776001     0.71577901     0.09859310    -0.05413023     1.11727895
O       0.01252197     4.76771202     0.79195498    -0.01419095    -0.53681543    -0.20702685
O      -0.01792699     0.96490301     0.82184698     0.21004609    -0.16726369    -0.62615744
O       5.71621922     4.72001225     3.97967883     0.07691844     0.70199138     0.66168830
O       5.71732023     0.91289225     4.00439982    -0.15041448     0.39478404     0.65522609
O       1.87996224     4.72549220     4.04984382    -0.01655071     0.18368713    -0.05757191
O       1.86274123     0.93978821     4.12249382     0.27977032     0.24065869    -0.67461581
O       3.82605725     2.91548221     3.21727883    -0.39895565    -0.47674981     0.09385738
O       3.82167423    -0.97871475     3.23658581    -0.59754465     0.02792888    -0.54937424
O      -0.05492177     2.76426521     3.22880881     1.39011012     0.28732217    -0.43060466
O      -0.01050676    -0.96606879     3.17443780     0.31552898    -0.03982589     0.52948855
O       5.73034302     6.65217899     1.59845900    -1.15404934    -0.03688377     0.08660636
O       5.74409300     2.87652397     1.60170899    -0.81961400     0.01919175    -0.11969081
O       1.85339998     6.66773998     1.61672402     1.25164125    -0.00584952     0.17378735
O       1.95920098     2.90062900     1.67075397    -0.91780369    -0.21758534    -0.19405177
