# total energy = -19878.67932837 eV

CRYSTAL
PRIMVEC
        6.90445370     0.00000000     0.00000000
        0.00002174     2.78733431     0.00000000
        0.00000000     0.00000000    10.68637286
PRIMCOORD
24 1
Ti      2.50254536     1.65177170     3.96456813    -1.36946004     0.73869672    -2.07705180
Ti      4.40193027     1.13556252     6.72180483     1.36946004    -0.73869672     2.07705180
Ti      5.95465437     1.13556347     1.37857565    -1.36659506    -0.74010055     2.07938945
Ti      0.94982126     1.65177089     9.30779740     1.36659506     0.74010055    -2.07938945
Ti      2.50253458     0.25810459     1.37861850    -1.36946004     0.73869672     2.07705180
Ti      4.40194104     2.52922972     9.30775456     1.36946004    -0.73869672    -2.07705180
Ti      0.94981049     0.25810359     6.72176199     1.36659506     0.74010055     2.07938945
Ti      5.95466514     2.52923072     3.96461097    -1.36659506    -0.74010055    -2.07938945
O       2.18531093     0.98146778     5.45317426     9.38954187    -1.91142796     5.64021464
O       4.71916474     1.80586644     5.23319870    -9.38954187     1.91142796    -5.64021464
O       1.26697174     0.98147900     0.11002220    -9.39218163    -1.91105695     5.63853597
O       5.63750398     1.80585521    10.57635046     9.39218163     1.91105695    -5.63853597
O       4.71915397     0.41219928     0.10998754    -9.38954187     1.91142796     5.64021464
O       2.18532166     2.37513493    10.57638513     9.38954187    -1.91142796    -5.64021464
O       5.63749321     0.41218806     5.45320897     9.39218163     1.91105695     5.63853597
O       1.26698237     2.37514621     5.23316399    -9.39218163    -1.91105695    -5.63853597
O       0.25086801     1.69541473     2.88665590     3.66589156    -1.40442757     2.60109347
O       6.65360762     1.09191949     7.79971706    -3.66589156     1.40442757    -2.60109347
O       3.70310395     1.09189358     2.45656451     3.66889204     1.40482146    -2.60013008
O       3.20137172     1.69544068     8.22980825    -3.66889204    -1.40482146     2.60013008
O       0.25085724     0.30174757     2.45653039     3.66589156    -1.40442757    -2.60109347
O       6.65361839     2.48558665     8.22984238    -3.66589156     1.40442757     2.60109347
O       3.20136095     0.30177348     7.79975109    -3.66889204    -1.40482146    -2.60013008
O       3.70311472     2.48556074     2.88662182     3.66889204     1.40482146     2.60013008
