# total energy = -4988.58655166 eV

CRYSTAL
PRIMVEC
        3.62194314     0.00000000     0.00000000
        0.89154718     3.51050078     0.00000000
       -2.25677814    -1.75527604     4.65951654
PRIMCOORD
6 1
Ti      0.66854277     2.63301002     1.16487906     0.00068623    -0.00068623     0.00000000
Ti      1.58816957    -0.87778515     3.49463718    -0.00068623     0.00068623     0.00000000
O       0.22292477     0.87762020     0.75899712     0.00025171     0.00088420     0.09300661
O       2.03378741     0.87760459     3.90051913    -0.00025171    -0.00088420    -0.09300661
O      -0.22289889    -0.87760007     3.08875524     0.00088420     0.00025171     0.09300661
O       2.47961107     2.63282480     1.57076101    -0.00088420    -0.00025171    -0.09300661
