# total energy = -19518.70048203 eV

CRYSTAL
PRIMVEC
        7.60600008     0.00000000     0.00000000
        0.00000000     7.60600008     0.00000000
       -1.89786986    -1.89786986     4.85670466
PRIMCOORD
23 1
Ti      3.75492799     6.57092002     1.30422501    -0.44299378     0.29438396    -1.18125059
Ti      3.79474302     2.74186397     1.19125297    -0.12181223     0.10711271     1.07324802
Ti     -0.13800202     6.69934901     1.08865101     0.84930742     0.41142500     0.13873961
Ti     -0.06106600     2.88211902     1.19600202     0.58510951    -0.62346344     0.37740029
Ti      5.68407525     2.82579323     3.75249182    -0.23287981     1.14101641    -1.76574509
Ti      5.78289323    -0.86781576     3.58352282    -0.49627323    -0.76347677     0.33930013
Ti      2.10224823     2.83092720     3.70984283     0.21486151     0.66845725    -0.51537499
Ti      1.85778220    -0.98147378     3.58877380     0.14912918    -0.60809878     0.36786921
O       3.92127100     4.72566402     0.88163200     0.02617024    -0.31838548    -0.12391333
O       3.42729499     0.93056502     0.80186901     0.84286295     0.27124814    -0.55912901
O      -0.26035399     4.75413000     0.76898302     0.01868190     0.63733146     1.14990780
O       0.06115903     0.90380802     0.64174098     0.28748749     0.98224250     0.68496708
O       5.87558524     4.72966423     3.97045781     0.03525395    -0.00112434     0.01994894
O       5.77633323     0.99624523     4.17556580     0.40595369    -0.74966120    -1.56543731
O       1.90825724     4.62312921     4.12516082    -0.37436407     1.73924138    -0.38923688
O       2.08667221     0.93342422     4.09952880    -0.53093223    -0.69817638    -0.45781800
O       3.92179922     3.01098225     3.19673580    -1.28732046    -0.70966022    -0.15812650
O       3.77926724    -1.04866479     3.19217080     0.31228605     0.07532358     0.69730015
O      -0.03167676    -0.94053176     3.11480381     0.83904589     0.06310904     0.13128726
O       5.71020401    -0.44947802     1.60490702    -0.78919501    -1.30701435     0.01621107
O       5.76220002     2.67352502     1.65954002     0.10826508    -0.11851016     0.27968779
O       1.87361201     6.54387901     1.56508998    -0.39742148    -0.09419986     0.84208802
O       1.81093202     3.00524502     1.69219301    -0.00122230    -0.39912021     0.59807610
