# total energy = -19960.09951251 eV

CRYSTAL
PRIMVEC
        5.93400000     0.00000000     0.00000000
        0.00000000     9.29699974     0.00000000
        0.00000000     0.00000000     4.64899994
PRIMCOORD
24 1
Ti      4.48346198     7.06059598     2.47889601    -1.05448950    -1.84448747    -0.83250294
Ti      4.45703402     2.37739002     2.41826500     0.58583790    -1.30837395    -0.82109984
Ti      1.46472701     6.97415599     2.21083497     0.79058778    -0.54513192     0.77257951
Ti      1.51719298     2.36122302     2.25826000    -0.25075104    -1.17517661    -0.21832865
Ti      2.92865899     4.54135698     0.05310400     0.44085128     2.06189000    -1.17214194
Ti      2.97613699     9.19982301     4.58610998     0.21658441     1.81118061     2.00184238
Ti      5.87678298     4.67711402     0.07769899    -0.53427492     0.82630298    -0.00218312
Ti      0.03395699     9.26711298     4.55022298    -0.32722982     1.84246581     2.00676476
O       4.37340099     5.64880500     0.94657798     1.03585311    -0.97661539    -0.66102367
O       4.37767902     0.96329701     0.77353802     0.19798582    -0.40987899     0.45071764
O       1.52182598     5.46481198     0.94327099    -0.75308848     0.94064461     0.47724115
O       1.52590800     0.95129099     0.82005699    -0.16950672     0.56278461     0.43313643
O       4.46646703     8.50305898     3.71762899    -0.19793799    -1.49126687    -0.42436073
O       4.47332702     3.79044198     3.72283001     0.10358824    -0.36280542    -0.19678897
O       1.42573702     8.31258798     3.88122302     0.67576535    -0.85594858    -1.21634873
O       1.48888898     3.68380202     3.81031100    -0.33488760    -0.45279766    -1.22613641
O       2.92370399     6.12980601     3.37178599     0.12349424     0.33952458    -1.11568924
O       3.05147299     1.39587502     3.10721001    -1.35800371     0.21236034     0.14872166
O       5.91739998     6.02259999     3.14151901     0.17776588     0.11853844     0.88593563
O       0.03370801     1.23293801     3.14582598     0.38196014     2.26244152    -1.24060350
O       2.95357499     7.91907902     1.51922301    -0.19305135     0.22380227    -0.70834381
O       3.08862801     3.20022302     1.29741302    -0.91789677    -0.74634113     1.79554187
O       5.89095101     7.96754599     1.49689702     0.43540311    -0.38654391    -0.07950394
O       5.87439501     3.27043098     1.35837302     0.92544039    -0.64656866     0.94257422
