# total energy = -19517.11690055 eV

CRYSTAL
PRIMVEC
        5.17600016     0.00000000     0.00000000
        0.00000000     5.50899976     0.00000000
        0.00000000     0.00000000     9.26300011
PRIMCOORD
23 1
Ti      1.88508701     3.24247200     3.30871298     0.04587801    -0.03956749     3.03528688
Ti      3.30335099     2.19601198     5.89571800     0.61788903     0.44617424    -2.59861647
Ti      4.49125099     2.20134900     1.36482602    -0.28217688    -0.32255195    -2.95253024
Ti      0.73971100     3.36828098     7.95317603     0.33968065    -1.25448618     1.79255785
Ti      1.86908601     0.55643099     1.33653398    -0.22859070     0.20544639    -3.18479581
Ti      3.31700101     5.06399800     7.92270801    -0.45333348    -0.33544604     3.40094442
Ti      0.75550303     0.58244301     5.84605000    -0.92687481    -0.02004330    -2.51624447
Ti      4.44636898     4.89372802     3.41212099     0.27096481     1.11134561     2.53621526
O       1.61833600     1.90161797     4.78525801     0.35847362    -0.00028488    -0.44694120
O       3.41622502     3.52817300     4.44905598     0.42137311     0.55466121     0.51010243
O       0.84368100     2.07206898     0.14691098    -0.34342520     0.57526269    -0.30965478
O       3.46622000     0.84885302     0.12300101     0.29730165    -0.09132973    -0.39025607
O       1.76543400     4.71685999     8.99722401    -0.68778861    -0.05999337     1.33323267
O       4.29100302     0.84513898     4.78803502    -0.10813344    -0.87079594    -0.71143839
O       0.88045098     4.66503899     4.50924497     0.01745085     0.26884544     0.12667650
O       0.07312902     3.30205302     2.63780598     0.40982783     0.79745262    -0.67636828
O       5.02834500     2.17888399     6.68462502     0.13631120     0.04962102     1.10447511
O       2.79629901     1.95572598     2.23988199    -0.89875387     0.80932958     0.17516752
O       2.35201603     3.21584301     7.15670600     1.79138594     1.01779856    -0.32610316
O       0.01231602     0.75255498     2.06412900     1.51419803    -3.26123217     1.81948656
O       5.05797098     4.84047501     7.12138898    -0.51744062     0.35584287     0.32402365
O       2.61535902     0.61918400     6.75532098    -1.99516060     0.30668953    -1.27472102
O       2.65130899     4.84664902     2.52285402     0.22094398    -0.24273871    -0.77049871
