# total energy = -4987.30426291 eV

CRYSTAL
PRIMVEC
        4.09260012     0.00000000     0.00000000
        1.38983798     3.84937997     0.00000000
       -2.74125638    -1.92471620     5.30742224
PRIMCOORD
6 1
Ti      1.04226049     2.88718263     1.32685562     0.00019180    -0.00019180     0.00000000
Ti      1.69892051    -0.96251936     3.98056674    -0.00019180     0.00019180     0.00000000
O       0.34750213     0.96233969     0.86453577    -0.00057696    -0.00094205    -1.51557563
O       2.39367868     0.96232344     4.44288670     0.00057696     0.00094205     1.51557563
O      -0.34746894    -0.96231644     3.51824689    -0.00094205    -0.00057696    -1.51557563
O       3.08864968     2.88697952     1.78917558     0.00094205     0.00057696     1.51557563
