# total energy = -39030.03895417 eV

CRYSTAL
PRIMVEC
        7.60600008     0.00000000     0.00000000
        0.00000000     7.60600008     0.00000000
       -3.79573973    -3.79573973     9.71340985
PRIMCOORD
46 1
Ti      2.26681246     4.72929846     6.01627463    -2.55190928    -2.00557871     0.37043080
Ti      3.54552700     7.02139601     1.22238299     0.17887094     0.22166260     0.78144442
Ti      2.18459747     0.60834545     6.09717562    -3.74397162     0.75408812    -1.00284013
Ti      3.66608702     2.97575497     1.38519300     0.43908210     0.24373938    -0.60026874
Ti     -1.69920556     4.85937642     6.03762265     1.43128507    -0.14773436    -0.70853125
Ti     -0.08182202     6.70439498     0.97207199     0.28623459     0.84152521     1.16584248
Ti     -1.91174754     0.92249247     5.93857061     2.79244867    -2.03319648     0.40394283
Ti      0.04797902     2.92983001     1.11778798    -2.12023838    -1.57192652     2.47013043
Ti      3.78372243     1.00585043     8.39205860     3.16522817    -0.60915884     2.78432244
Ti      5.36113102     2.68756102     3.74861602     1.99634227    -0.07141550    -0.34917625
Ti      3.74963643    -2.74762756     8.39866262     0.73513497    -0.24324188     1.56704502
Ti      5.87649299    -1.16922401     3.48048302    -0.61652480     0.56429770     2.18569432
Ti      0.13116145     1.14901743     8.26015561    -2.94955599    -1.58415520     0.77410751
Ti      1.73321001     2.77750200     3.60200699    -2.70983909     0.18178246     3.76065552
Ti     -0.00785156    -2.69173353     8.63469362    -0.18961250     0.53792357    -1.70306491
Ti      1.96580998    -0.85976200     3.76038699    -0.43829998    -0.79376232    -1.81450222
O       2.32115144    -1.16829356     5.57849761     0.55462572     2.32722872     0.52876350
O       3.61654798     1.31838400     0.72638103     0.37508989    -3.48910296     1.23500107
O      -1.91936356     2.68157746     5.61203163     0.19192469     0.66189656     2.02813963
O       0.13136201     4.74651001     0.71402299    -0.05033425     0.50928636     0.25422769
O      -2.10201057    -1.05633654     5.50796564     0.22975746     0.61492969     0.71303865
O      -0.22276902     0.95728000     0.61654801     0.03384010    -0.29067001     1.92690369
O       3.49483446     2.96251544     8.86293660     0.38436670    -2.15158708    -1.44939515
O       5.62825901     4.62952702     4.13955799    -0.04540724     0.01984301    -0.67148498
O       3.68731147    -1.01215156     9.02164760     0.26336025     2.99653109    -1.75005518
O       5.89453799     0.91277398     3.93731698    -1.05096323    -1.60916948     1.19732385
O      -0.10493056     2.94941047     9.01000962     0.84421149    -0.38250547    -0.90466355
O       2.05311301     4.63161399     4.14684100     0.12650938    -1.08250785    -0.66811220
O       0.03353148    -0.48846754     9.17936063     0.37828706     0.45839110     0.69685123
O       1.71720298     0.93088898     4.21975401     0.20876363    -0.40249221     0.35052197
O       1.97317248     0.80291646     7.93567460    -0.34291330     0.88570963     0.90312192
O       3.59636500     2.28342402     3.29877599     0.10852528     1.26912322     0.36835952
O       1.81248844    -2.44439656     8.18466160     1.41059539    -1.16538302    -1.36768341
O       3.82434700    -0.93585902     3.03993200    -0.95181657     0.03956492     0.74682013
O      -1.86537552     0.75661747     8.25327260    -1.39496951     1.94424322    -1.27010744
O      -0.13567300     2.75957601     3.43892302     0.62751524     1.12069878    -0.76888663
O      -1.90497058    -2.63680155     8.43979562     0.56423703    -0.07710536    -1.80772891
O       0.04042898    -1.06811401     3.56085001     0.97390544    -0.37098358    -0.73340076
O       4.12659743     4.45236646     6.50020664    -3.17755841    -0.04593663     0.64732920
O       5.80761999     6.46566301     1.66817598    -0.49605314     0.21776403    -1.93008106
O       3.88844444     0.72269742     6.54405961     1.47089113     0.66297899    -1.13930431
O       5.39660299     2.81741202     1.91083899     1.84550691     1.53264699    -2.69980819
O       0.19583442     4.78985545     6.33002260    -0.93638429    -0.58482951     0.64510493
O       1.76855101     6.93114002     1.60932300    -0.03112502    -0.48331538     0.06070171
O      -0.06732156     0.45024147     6.53181863     0.52196447     1.51713629    -0.72365885
O       1.62532702     2.39733101     1.90042902     1.65897228     1.07276671    -4.50307031
