# total energy = -19516.22577168 eV

CRYSTAL
PRIMVEC
        5.93400000     0.00000000     0.00000000
        0.00000000     9.29699974     0.00000000
        0.00000000     0.00000000     4.64899994
PRIMCOORD
23 1
Ti      4.52552998     6.75630102     2.24938400     2.68721800     1.43828361     0.14548747
Ti      4.41827898     2.20843701     2.43025901    -0.32075604     0.10829413     0.26740948
Ti      1.68901101     7.08068800     2.23840998    -2.58459778     0.84711659     0.13994468
Ti      1.36678901     2.47239300     2.26663799    -0.12250463    -0.83101967     0.17800962
Ti      2.88108897     4.43811699     0.06643201     0.92079312    -0.03479115     0.76813741
Ti      3.00721202     9.27785300     4.39741098    -1.12475469    -1.09032581     1.37093585
Ti      0.02411000     4.70625401     0.03902402    -0.53688793     0.99186640    -0.35274211
Ti      0.04891302     0.18845801     0.17269800     0.46920310    -1.82785499    -0.55943703
O       4.53905803     5.71422899     0.63186600    -1.90111629     0.03090210     1.20702540
O       4.48327502     0.94207399     1.04560498    -0.83476372    -0.30620076    -1.01287181
O       1.59208500     5.41711797     1.05461301    -0.08879180     1.00078274    -0.58746721
O       1.46462599     0.93612101     0.93482299    -0.05551862     0.85893569     0.75641857
O       4.25590798     8.23825498     3.70283298     0.74842193     0.00150075    -0.77905663
O       4.38952000     3.82789000     3.84667399     0.37767514    -1.05872977    -1.02733684
O       1.31926899     8.56299999     3.68945300     1.11582370    -1.35571106    -0.30878420
O       1.39291502     3.68010699     3.86292000     0.95634352    -0.23411137    -0.63177839
O       2.75746502     1.38590903     3.26408302     1.34116067     1.36832978    -0.67024468
O       0.22840999     6.03811801     3.08988200    -1.31941916    -0.92303126     1.47971901
O       0.04148501     1.49478201     3.25807802    -0.97483901    -0.42241827     0.80516979
O       2.98346001     7.94183798     1.29227598    -0.19506556    -0.87597286     0.92194086
O       2.95015200     3.23403898     1.58702702     0.28062753     0.65016101    -0.93173188
O       5.88435201     7.74328702     1.37163701     0.39217951     1.56734918    -0.56481707
O       5.73460898     3.33252702     1.56358500     0.76956926     0.09664600    -0.61393030
