# total energy = -19072.90033871 eV

CRYSTAL
PRIMVEC
        5.93400000     0.00000000     0.00000000
        0.00000000     9.29699974     0.00000000
        0.00000000     0.00000000     4.64899994
PRIMCOORD
22 1
Ti      4.37435902     6.78216699     2.37205200    -0.02621421     1.03955422    -0.69201627
Ti      4.30088302     2.41447000     2.22804498     2.21395898    -1.88297689     0.79785834
Ti      1.50195998     7.04110998     2.50807601    -0.12392310     0.79723717     0.34363218
Ti      1.61673302     2.53958401     2.17213000    -2.06498613    -0.62483872     0.42527348
Ti      3.05712402     4.52567101     4.58638399    -2.92512793     3.24827586     2.06226153
Ti      2.98135002     9.27859401     4.57330500     1.58436501     0.12991326     0.71007982
Ti      5.79152601     4.57919501     4.51723100     2.23161270     0.81563059     1.22565382
Ti      0.03919801     9.14815197     0.25080599    -1.26320839    -0.83659691     1.44702614
O       4.49901402     5.68278998     0.77449599    -0.11803939    -1.40259360     1.25201020
O       4.49963898     1.03062101     0.90872598     0.63142229    -1.19281542    -0.01089917
O       1.58934201     0.79268900     1.04152502    -0.98502084     1.05156693     0.50661087
O       4.53227900     8.12221201     3.81324999    -0.06152601     3.21329676     0.77020098
O       4.34972798     4.07261098     3.60526598     1.97823630    -3.79726495    -4.49986723
O       1.44999398     8.58459101     3.78507702    -0.33669920    -1.27310431    -1.87733872
O       1.57650200     3.87136498     3.71435899    -1.51722576    -0.06671784    -0.78935956
O       2.94062501     6.17388399     3.42926099    -1.53738476    -0.52059048    -0.39091375
O       2.89351400     1.63227998     3.37197099     0.55219140    -0.73789454    -0.50236161
O       5.90120398     6.15032301     3.33331798     2.18016773    -1.51386662     0.06152421
O       3.05501699     7.77898500     1.33624400    -1.33583000     0.08884039     0.99162806
O       3.05322203     3.07646503     1.16134700    -0.63478915     1.78509625    -0.66440750
O       5.92933001     7.68083898     1.54253602     0.91579746     2.01798352    -1.83868448
O       5.85885398     3.28236398     1.32364899     0.64222273    -0.33813464     0.67208842
