# total energy = -19960.78425396 eV

CRYSTAL
PRIMVEC
        5.93400000     0.00000000     0.00000000
        0.00000000     9.29699974     0.00000000
        0.00000000     0.00000000     4.64899994
PRIMCOORD
24 1
Ti      4.48439201     6.93806600     2.41454901    -0.25579889    -0.11346848    -0.86415375
Ti      4.43847201     2.34688602     2.25008199     0.05985530    -0.47790243     0.65064412
Ti      1.48955702     6.98046299     2.34848599     0.53571165    -0.01037441    -0.64162057
Ti      1.48237301     2.43000802     2.31350399     0.25112077    -1.26445615    -0.07596610
Ti      2.97167999     4.66335801     4.61523600     0.99145349     0.51215828     0.36815794
Ti      2.98910601     9.29414198     0.00581000    -0.26084905     0.54201960     0.38764665
Ti      0.03346199     4.63587698     0.01506800    -0.83819820     0.45118069     0.17868222
Ti      5.92937499     0.00117297     4.60316901     0.72275305     0.70786096     0.61378657
O       4.36798698     5.59408400     0.95663700     0.50689935    -1.13125573    -0.85240997
O       4.50062499     0.92720400     0.89482301    -0.54969152    -0.02823021    -0.00686922
O       1.51198201     5.48214798     0.96242599    -0.67662487     0.51841558    -0.22478186
O       1.35972698     0.91251299     0.91022398     1.05450981    -0.29488353    -0.08352900
O       4.48164902     8.40922902     3.81878900    -0.94226261    -0.60765680    -0.66385574
O       4.40449402     3.75185898     3.76595298     0.50006612    -0.10415286    -0.45073383
O       1.59189101     8.31144998     3.82223701    -0.81499707     0.07584731    -0.42503745
O       1.44889001     3.74516398     3.71777398    -0.10020930     0.07899589     0.08086122
O       2.92264002     6.06371997     3.19764799    -0.31567785    -0.63342209     0.87831796
O       2.89540698     1.41915602     3.21205299     0.42129238    -0.01041117     0.07439027
O       5.93271400     5.95331301     3.21739900     0.66750568     0.62948599     0.33757234
O       5.84559401     1.44824902     3.19012902     0.48997300    -0.33304386     0.21871174
O       3.10009300     7.79698201     1.50020602    -1.94754812     1.49251385    -0.87866815
O       2.96011398     3.17567100     1.25249799    -0.36706599    -0.41539478     1.29195385
O       5.80644902     7.82503602     1.38650398     1.52321335     0.03020687     0.64411943
O       0.01607101     3.25724600     1.45029201    -0.65543049     0.38596721    -0.55721843
