# total energy = -39036.58038754 eV

CRYSTAL
PRIMVEC
        7.60600008     0.00000000     0.00000000
        0.00000000     7.60600008     0.00000000
       -3.79573973    -3.79573973     9.71340985
PRIMCOORD
46 1
Ti      1.86957243     4.93010345     6.19108161    -0.33617161     0.80212689     0.42477828
Ti      3.87198502     6.71749799     1.32261800     0.34270247     0.31141984     0.77523083
Ti      1.87411446     0.98588944     6.12777863     0.21013351    -1.17597674    -2.03304993
Ti      3.88855297     2.71463997     1.19977903     0.42739361     1.10562362     1.07520772
Ti     -1.96599456     4.77325145     6.03698964     0.24452357     0.87395223     0.71807647
Ti      0.08811701     6.61301300     1.19418298    -0.49583537    -0.83069983     1.38820647
Ti     -1.94613057     1.03772945     5.84804664     0.24636063    -0.74966994    -0.02328675
Ti      0.12721199     2.83592502     1.13198798    -0.81439029     1.06020275     0.15174142
Ti      3.82120347     0.91444247     8.40948361    -0.58709774    -1.04150903    -0.24307013
Ti      5.80196901     3.02433599     3.53923201    -0.92136544    -1.15478647    -0.64169874
Ti      3.72670247    -2.97579255     8.56362162    -1.45724756     1.48102385    -0.07937950
Ti      5.72644901    -0.94056398     3.67816602     0.33933149     1.26568256    -0.85628026
Ti     -0.13742257     0.95894543     8.35662060     1.17714634    -0.43793514     0.09177196
Ti      1.92692498     2.72603798     3.55933202     0.60650263    -0.32802403    -0.05241144
Ti     -0.21203254    -2.89730953     8.59798565     1.15391358     0.57156750    -0.06843919
Ti      1.87850198    -1.06737602     3.69634998    -0.09753175     0.94906138     1.44659265
O       1.84078746    -0.84588153     5.72590163     0.03833131    -2.47907659    -0.28556739
O       3.64334901     0.95938200     0.96858101    -0.25087985    -1.41332565    -1.03933439
O      -1.83179357     2.91757448     5.57372560    -0.33990279     0.61291214    -0.16024818
O       0.17564398     4.71927701     0.87576401    -0.53591374     1.13795191    -0.96298622
O      -1.83266655    -0.95958955     5.57043163    -0.19440427    -0.18385220     0.93156681
O      -0.04859202     0.92351903     0.85650598     0.89564129    -0.11965893    -0.58307885
O       3.77391646     2.78285447     8.89822865     0.14816810     0.32472762     0.45671937
O       5.55229397     4.83776398     3.81541999     0.37798547    -1.65831587     1.59080948
O       3.72996247    -0.84953354     8.86625063     0.33234966    -1.35464508     0.71717324
O       5.79631602     1.00161199     3.93623301     0.01238527     0.21730072     0.89309821
O      -0.02942755     2.80527243     9.10250864    -0.32645309    -1.07155701    -1.35205058
O       2.13911902     4.44666400     4.35621998    -0.56097584     0.73909087     0.19350464
O      -0.05848356    -0.90979857     9.04786463    -0.27750878     0.90884931    -1.27611456
O       1.75049400     0.85593198     3.93765501     0.88156090     1.71148682     0.30770588
O       1.85445643     0.74413646     7.90843764     0.46663611     1.21017731     2.51743720
O       3.98335899     2.71211199     3.16707102    -1.18429606     0.13081084     0.46074700
O       1.78838346    -2.87523257     8.24931663     0.50536208    -0.16801908    -0.41705314
O       3.85042501    -0.94212903     3.21105898    -0.57219125    -0.05853324     1.15999630
O      -1.93898852     0.89309144     7.90551864     0.04804777     0.36561101     0.41594577
O       0.03971401     2.93394801     3.15324399     0.03169246    -0.15529803    -0.01902026
O      -2.05751656    -2.63925656     8.14121260     1.73219089    -0.93972184    -0.33730109
O       0.03565602    -1.03309401     3.41809900     0.15414361    -0.61276122    -0.89010493
O       3.74840043     4.83491145     6.61290563     0.16897451    -0.64336635    -0.67030870
O       5.76696600     6.74947701     1.72392502     0.20336071    -0.62329194    -1.52577237
O       3.77307443     0.84682944     6.33711464     1.13675249     1.19841811     0.25672937
O       5.72135700     2.98338402     1.37621402     0.72547508     0.17202306     0.99534279
O      -0.01642952     4.70762045     6.56104562    -1.13697335    -0.14301407     0.16814995
O       1.93245202     6.49903197     1.84552598    -0.33534705    -0.07235910    -2.44833235
O       0.04906447     0.98369447     6.39432462    -2.33385111     0.82509945    -0.06030088
O       1.99316903     3.10635401     1.71915999     0.15127091    -0.55972242    -1.11134227
