# total energy = -19930.91642749 eV

CRYSTAL
PRIMVEC
        6.09721375     0.00000000     0.00000000
        1.90397544     6.20367805     0.00000000
        0.00000000     0.00000000    11.04033747
PRIMCOORD
24 1
Ti      3.33824078     3.67629390     4.09588646    -0.00392402    -2.18953478     0.80775118
Ti      4.66294831     2.52738429     6.94445107     0.00392402     2.18953478    -0.80775118
Ti      6.03413497     2.52738643     1.42423820    -0.41090203    -0.71526651     0.04446802
Ti      1.96705422     3.67629200     9.61609946     0.41090203     0.71526651    -0.04446802
Ti      2.38625320     0.57445498     1.42428246    -0.00392402    -2.18953478    -0.80775118
Ti      5.61493592     5.62922340     9.61605520     0.00392402     2.18953478     0.80775118
Ti      1.01506651     0.57445266     6.94440681     0.41090203     0.71526651     0.04446802
Ti      6.98612261     5.62922571     4.09593072    -0.41090203    -0.71526651    -0.04446802
O       2.60022874     2.18442055     5.63379971     1.78590203     2.07770821    -0.73325498
O       5.40096036     4.01925771     5.40653783    -1.78590203    -2.07770821     0.73325498
O       1.78926567     2.18444557     0.11366648    -0.51489060    -0.22312324     1.15746171
O       6.21192350     4.01923273    10.92667074     0.51489060     0.22312324    -1.15746171
O       4.44897275     0.91741860     0.11363066    -1.78590203    -2.07770821    -0.73325498
O       3.55221635     5.28625965    10.92670656     1.78590203     2.07770821     0.73325498
O       5.25993589     0.91739363     5.63383553     0.51489060     0.22312324     1.15746171
O       2.74125316     5.28628470     5.40650201    -0.51489060    -0.22312324    -1.15746171
O       1.37963168     3.77342871     2.98227059     0.50543330     1.88248864     1.87284494
O       6.62155742     2.43024954     8.05806695    -0.50543330    -1.88248864    -1.87284494
O       4.01599673     2.43019170     2.53793329     0.81896582     1.67620922     0.86280701
O       3.98519237     3.77348655     8.50240406    -0.81896582    -1.67620922    -0.86280701
O       0.42764401     0.67158961     2.53789803     0.50543330     1.88248864    -1.87284494
O       7.57354503     5.53208865     8.50243932    -0.50543330    -1.88248864     1.87284494
O       3.03320476     0.67164745     8.05810215    -0.81896582    -1.67620922     0.86280701
O       4.96798434     5.53203080     2.98223532     0.81896582     1.67620922    -0.86280701
