# total energy = -19902.46699369 eV

CRYSTAL
PRIMVEC
        6.72564853     0.00000000     0.00000000
        2.43092998     6.73270562     0.00000000
        0.00000000     0.00000000    12.23182731
PRIMCOORD
24 1
Ti      3.87829107     3.98979501     4.53792071    -0.36119848    -1.91818431     0.51419897
Ti      5.27828769     2.74291043     7.69390674     0.36119848     1.91818431    -0.51419897
Ti      6.79080161     2.74291272     1.57794418     0.16418582    -0.88920402    -0.01997928
Ti      2.36577718     3.98979292    10.65388341    -0.16418582     0.88920402     0.01997928
Ti      2.66282624     0.62344238     1.57799322    -0.36119848    -1.91818431    -0.51419897
Ti      6.49375254     6.10926319    10.65383437     0.36119848     1.91818431     0.51419897
Ti      1.15031222     0.62343990     7.69385770    -0.16418582     0.88920402    -0.01997928
Ti      8.00626657     6.10926574     4.53796975     0.16418582    -0.88920402     0.01997928
O       2.98468206     2.37070002     6.24180785     1.78769846     2.00360487    -0.69814218
O       6.17189670     4.36200541     5.99001960    -1.78769846    -2.00360487     0.69814218
O       2.09013499     2.37072718     0.12593355    -0.46182583    -0.41469724     1.33756164
O       7.06644384     4.36197831    12.10589356     0.46182583     0.41469724    -1.33756164
O       4.95643186     0.99565265     0.12589386    -1.78769846    -2.00360487    -0.69814218
O       4.20014690     5.73705279    12.10593325     1.78769846     2.00360487     0.69814218
O       5.85097899     0.99562548     6.24184755     0.46182583     0.41469724     1.33756164
O       3.30559971     5.73707997     5.98997990    -0.46182583    -0.41469724    -1.33756164
O       1.72298774     4.09521311     3.30412172     0.58294618     2.32222047     2.27300413
O       7.43359102     2.63749233     8.92770573    -0.58294618    -2.32222047    -2.27300413
O       4.55947401     2.63742962     2.81183088     0.55595756     1.98489366     1.37971360
O       4.59710475     4.09527582     9.41999636    -0.55595756    -1.98489366    -1.37971360
O       0.50752289     0.72886034     2.81179180     0.58294618     2.32222047    -2.27300413
O       8.64905587     6.00384510     9.42003544    -0.58294618    -2.32222047     2.27300413
O       3.38163990     0.72892306     8.92774468    -0.55595756    -1.98489366     1.37971360
O       5.77493886     6.00378238     3.30408270     0.55595756     1.98489366    -1.37971360
