# total energy = -4989.83856500 eV

CRYSTAL
PRIMVEC
        2.97514514     0.00000000     0.00000000
        0.69533020     4.60945661     0.00000000
       -0.00000437    -0.00006051     4.67484655
PRIMCOORD
6 1
Ti      1.83523522     2.30469796     2.33742322     0.00000000     0.00000000     0.00000000
Ti      0.00000000     0.00000000     0.00000000     0.00000000     0.00000000     0.00000000
O       1.62308120     0.89830335     0.91105870    -0.75989419     0.25291386     0.22063853
O       2.04738924     3.71109257     3.76378769     0.75989419    -0.25291386    -0.22063853
O       0.21215212     1.40637009     3.24848292     0.75977335    -0.25324090     0.22100902
O       0.48317329     3.20302593     1.42636347    -0.75977335     0.25324090    -0.22100902
