# total energy = -4988.81725817 eV

CRYSTAL
PRIMVEC
        3.80302936     0.00000000     0.00000000
        1.29150039     3.57701818     0.00000000
       -2.54729956    -1.78853345     4.93189708
PRIMCOORD
6 1
Ti      0.96851565     2.68290084     1.23297432     0.00056744    -0.00056744    -0.00000000
Ti      1.57871387    -0.89441657     3.69892286    -0.00056744     0.00056744     0.00000000
O       0.32291471     0.89424962     0.80336578    -0.00031753    -0.00018486    -1.23851885
O       2.22431462     0.89423452     4.12853150     0.00031753     0.00018486     1.23851885
O      -0.32288387    -0.89422801     3.26931433    -0.00018486    -0.00031753    -1.23851885
O       2.87011315     2.68271210     1.66258296     0.00018486     0.00031753     1.23851885
