# total energy = -19874.78128241 eV

CRYSTAL
PRIMVEC
        7.37544732     0.00000000     0.00000000
        0.00002293     2.61656877     0.00000000
        0.00000000     0.00000000    11.73371461
PRIMCOORD
24 1
Ti      2.67325833     1.55057614     4.35312453    -0.89299485     0.68556769    -0.13577127
Ti      4.70221162     1.06599238     7.38059043     0.89299485    -0.68556769     0.13577127
Ti      6.36085618     1.06599322     1.51368607    -0.89169490    -0.68566976     0.13692261
Ti      1.01461382     1.55057540    10.22002899     0.89169490     0.68566976    -0.13692261
Ti      2.67324717     0.24229181     1.51373312    -0.89299485     0.68556769     0.13577127
Ti      4.70222283     2.37427681    10.21998194     0.89299485    -0.68556769    -0.13577127
Ti      1.01460260     0.24229091     7.38054338     0.89169490     0.68566976     0.13692261
Ti      6.36086740     2.37427771     4.35317159    -0.89169490    -0.68566976    -0.13692261
O       2.33438360     0.92133827     5.98762489     8.70827744    -1.02175935     3.63962619
O       5.04108640     1.69523031     5.74609007    -8.70827744     1.02175935    -3.63962619
O       1.35339910     0.92134889     0.12080519    -8.70823039    -1.02214784     3.63951486
O       6.02207095     1.69521968    11.61290942     8.70823039     1.02214784    -3.63951486
O       5.04107518     0.38694587     0.12076708    -8.70827744     1.02175935     3.63962619
O       2.33439482     2.22962265    11.61294753     8.70827744    -1.02175935    -3.63962619
O       6.02205973     0.38693530     5.98766295     8.70823039     1.02214784     3.63951486
O       1.35341016     2.22963327     5.74605202    -8.70823039    -1.02214784    -3.63951486
O       0.26798083     1.59154545     3.16956910     1.87877108    -0.46574163     5.92154434
O       7.10748917     1.02502307     8.56414581    -1.87877108     0.46574163    -5.92154434
O       3.95571424     1.02499882     2.69732565     1.88444011     0.46600928    -5.92147081
O       3.41975576     1.59156975     9.03638911    -1.88444011    -0.46600928     5.92147081
O       0.26796961     0.28326106     2.69728820     1.87877108    -0.46574163    -5.92154434
O       7.10750039     2.33330751     9.03642656    -1.87877108     0.46574163     5.92154434
O       3.41974460     0.28328532     8.56418321    -1.88444011    -0.46600928    -5.92147081
O       3.95572540     2.33328320     3.16953165     1.88444011     0.46600928     5.92147081
