# total energy = -4985.23084868 eV

CRYSTAL
PRIMVEC
        3.86501518     0.00000000     0.00000000
        0.00000000     2.91580364     0.00000000
        0.00000000    -0.00007709     5.11208116
PRIMCOORD
6 1
Ti      1.93250754     1.45786312     2.55604063     0.00000000     0.00000000     0.00000000
Ti      0.00000000     0.00000000     0.00000000     0.00000000     0.00000000     0.00000000
O       1.93250754     0.56823210     0.99626935     0.00000000    -1.55577304    -0.29332441
O       1.93250754     2.34749414     4.11581192     0.00000000     1.55577304     0.29332441
O       0.00000000     0.88960037     3.55231104     0.00000000     1.55659014    -0.29088649
O       0.00000000     2.02612587     1.55977023     0.00000000    -1.55659014     0.29088649
