# total energy = -19518.97265150 eV

CRYSTAL
PRIMVEC
        7.60600008     0.00000000     0.00000000
        0.00000000     7.60600008     0.00000000
       -1.89786986    -1.89786986     4.85670466
PRIMCOORD
23 1
Ti      3.79296001     6.65963902     1.26247102     0.31750565    -0.68149660     0.44914001
Ti      3.68783800     2.73921502     1.14443698     0.50063382     0.93827971     2.30260423
Ti      0.02782800     6.70049399     1.17035301    -0.68809945     0.43975599     0.17410797
Ti     -0.02925001     2.93042697     1.06275498    -0.22631475    -0.70478592    -0.07901414
Ti      5.66171021     2.97346824     3.58197583    -1.45555783    -0.79084514    -0.43056815
Ti      5.75160123    -0.89862875     3.56816679    -0.15040985     0.44211858     0.90324173
Ti      1.94469221     2.76199621     3.78112481     1.28831368     0.29614003    -0.79530575
Ti      1.90592622    -1.05525178     3.64724884     0.26295864     0.07138748     0.05231194
O       3.81394401     4.63624000     0.84690199    -0.72752631     0.66886734     0.40105753
O       3.92047199     0.91387900     0.88556998    -0.52516910    -0.48050208    -0.24766957
O      -0.07752801     4.75525001     0.79643801     0.68464389     1.83978003    -0.18324799
O      -0.15516599     1.03284599     0.72782499     0.56057243    -0.80949439    -0.42200329
O       5.83056522     4.78334424     4.12443082     0.41516107     0.13754507    -1.05927664
O       5.79358023     1.10564924     3.93807984     0.44609916    -1.29219759    -0.11020472
O       1.92565823     4.68209125     4.22208181    -0.71823099     0.26380325    -1.13264644
O       1.97827623     0.86317223     4.10260480    -0.74086494    -0.25323576    -0.35015198
O       3.75661120     2.77784924     3.35860482     0.55743825     0.40050089    -1.21965235
O       3.78364321    -1.14161980     3.28915480     0.23647499     0.45477432    -0.76482197
O       0.02801623    -0.89037978     3.26837481    -0.00799691    -0.33269907     0.00515378
O       5.74344402     6.69817402     1.61807501    -0.63160021    -0.30087137     0.41858526
O       5.76416199     2.94444001     1.53158703    -0.76637492    -0.12632220     1.62836097
O       1.85848701     6.72024600     1.62175200     0.94812190    -0.22471039     0.49542862
O       1.76099002     2.78826202     1.74599398     0.42022203     0.04420808    -0.03542956
