# total energy = -19071.05737861 eV

CRYSTAL
PRIMVEC
        7.60600008     0.00000000     0.00000000
        0.00000000     7.60600008     0.00000000
       -1.89786986    -1.89786986     4.85670466
PRIMCOORD
22 1
Ti      3.82541398     6.53209100     1.38561300     1.30534519     1.56165830     0.62577177
Ti      3.58089699     2.81117201     1.15401101     0.56175231    -1.38079398     0.60692841
Ti      0.01522602     6.93705400     0.97895701    -1.10839964    -3.85937666     1.05322863
Ti     -0.25350898     2.65814898     0.99095198    -1.46411601     5.49571473     2.23157130
Ti      5.66209624     3.15737120     3.48212479    -0.22970527    -1.51950016     0.88749835
Ti     -1.15960680    -0.52207077     3.94375881     0.45585187    -1.41040847    -2.90979617
Ti      1.69755521     2.73663221     3.75194984     0.91901520    -1.17523832     0.94387186
Ti      2.11287522    -1.19786176     3.82374183    -1.36609626     1.10981401     0.71857218
O       4.00799399     4.67939398     0.90668198    -1.79903883    -0.89313549    -0.08214549
O       3.94901200     0.81873198     1.08667099    -0.48567334    -1.18045869    -0.73153491
O       7.15466899     4.97459599     0.49129599     0.99644143     1.11798600     0.10924056
O       6.98595998     1.08285398     0.39096801    -0.74148483    -4.49019088     0.32884267
O      -1.53691679     4.93968225     3.93432379     0.61496080     0.28772121     0.18411625
O       5.57507320     1.04705625     3.96891579    -0.61710638     1.25330758    -0.99495250
O       2.07506524     4.51851023     4.35403782    -0.63832313     1.76573275    -2.06563379
O       2.10758821     0.73470022     4.20685383    -0.47169579     0.17068018    -1.88753109
O       3.43800824     2.69785823     3.03532980    -0.18911576     0.87596669     0.26222511
O      -0.20130278     2.42576725     3.05701681     2.76875260     1.44347596     0.71736247
O       5.89001902     6.74568202     2.15985700     0.87148808     0.52976700    -0.86425608
O       5.60090801     2.94968802     1.53384301    -1.61747260     0.09707795     1.09823247
O       1.87926902     6.46867398     1.96929599     0.02553158     0.33523392    -0.75501552
O       1.57824501     2.44217100     0.89269800     2.20908880    -0.13503310     0.52340352
