# total energy = -4989.81048461 eV

CRYSTAL
PRIMVEC
        3.65558300     0.00000000     0.00000000
        0.36463820     3.63735152     0.00000000
       -2.01014302    -1.81870509     4.67119457
PRIMCOORD
6 1
Ti      0.27333858     2.72815200     1.16779841     0.00207282    -0.00200238    -0.00143596
Ti      1.73673928    -0.90950587     3.50339560    -0.00207282     0.00200238     0.00143596
O       0.09119809     0.90933213     0.76089935    -0.00018358     0.00070371     0.62164052
O       1.91887966     0.90931391     3.91029477     0.00018358    -0.00070371    -0.62164052
O      -0.09117786    -0.90931382     3.09649653     0.00070474    -0.00007353     0.62092781
O       2.10125555     2.72795981     1.57469758    -0.00070474     0.00007353    -0.62092781
