# total energy = -4980.98309805 eV

CRYSTAL
PRIMVEC
        3.58984333     0.00000000     0.00000000
        0.00000000     5.62474631     0.00000000
        0.00000000    -0.00007299     5.62474631
PRIMCOORD
6 1
Ti      1.79492160     2.81233660     2.81237309     0.00000000     0.00000000     0.00000000
Ti      0.00000000     0.00000000     0.00000000     0.00000000     0.00000000     0.00000000
O       1.79492160     1.09616597     1.09618020     0.00000000    -0.95305636    -0.95305636
O       1.79492160     4.52850722     4.52856599     0.00000000     0.95305636     0.95305636
O       0.00000000     1.71614103     3.90855443     0.00000000     0.95280928    -0.95280928
O       0.00000000     3.90853216     1.71619176     0.00000000    -0.95280928     0.95280928
