# total energy = -4987.03131234 eV

CRYSTAL
PRIMVEC
        2.72946766     0.00000000     0.00000000
        0.00000000     4.27666662     0.00000000
        0.00000000    -0.00005550     4.27666662
PRIMCOORD
6 1
Ti      1.36473378     2.13830551     2.13833326     0.00000000     0.00000000     0.00000000
Ti      0.00000000     0.00000000     0.00000000     0.00000000     0.00000000     0.00000000
O       1.36473378     0.83344851     0.83345932     0.00000000     1.25731542     1.25731542
O       1.36473378     3.44316252     3.44320720     0.00000000    -1.25731542    -1.25731542
O       0.00000000     1.30483450     2.97179345     0.00000000    -1.25720821     1.25720821
O       0.00000000     2.97177652     1.30487307    -0.00000000     1.25720821    -1.25720821
