# total energy = -19957.50731777 eV

CRYSTAL
PRIMVEC
        7.60600008     0.00000000     0.00000000
        0.00000000     7.60600008     0.00000000
       -1.89786986    -1.89786986     4.85670466
PRIMCOORD
24 1
Ti      3.72759599     6.78349502     1.28371903     0.55539371    -2.11800795    -1.20725885
Ti      3.75378301     2.90052401     1.08096402     1.40201999     2.37593546     1.30028088
Ti     -0.04130303     6.42745202     1.21498202    -0.47642225    -1.01515907    -1.20041740
Ti      0.15054500     2.66026802     1.15315301    -1.26009684     2.04239126    -0.73807375
Ti      5.76515023     2.82360821     3.55406982     0.26048884     0.87966136     0.30702763
Ti      5.66760022    -1.05248778     3.67681582    -1.30354079    -1.02532290    -1.09808026
Ti      1.96159021     2.99140724     3.60819481     0.05533479     2.11527512     1.28140744
Ti      1.71535425    -0.83422476     3.70541679     1.46999612    -3.39218107    -1.97307507
O       3.78985300     4.87575002     0.59575500     0.09831491    -2.20764975     2.31915957
O       3.60313302     1.03063202     0.71017899    -0.04501335     0.41247298     2.67444682
O       0.09745699     4.52218098     0.68063201    -0.63549209     1.52168123     0.54932359
O       0.09301502     0.77539797     0.71614901     0.09793336     1.37867411     2.02833529
O       5.58608623     4.67668623     4.04489379     0.85308000     0.29405821     1.55386040
O       5.97998021     0.84964324     3.94120780    -0.37834491    -0.20378751     0.61321193
O       1.90487024     4.82065224     4.21061882     0.35530936     1.49453783    -0.08987037
O       1.85960924     0.95305521     4.04002181    -0.09695068     1.97099324    -0.75641549
O       3.88871025     3.32573122     3.45497683    -1.09839085    -2.82345953    -2.31009899
O       3.75573822    -1.02295979     3.55673381     0.14899600     1.08133054    -2.03071691
O       0.05187525     3.36869221     3.50033981    -0.28650250    -2.61420353    -2.45014729
O      -0.03281576     6.26273221     3.32639084     0.21069941     1.20182302    -1.58294833
O       5.65533002     6.37438300     1.55601401     0.44373426     1.21301735     1.25360583
O       5.76770801     2.85562502     1.58437801    -0.06562383    -0.93625059     0.09984909
O       1.89199600     6.58084098     1.60182499    -0.40565107     0.31358343     1.09555081
O       1.95781999     3.20814898     1.59584798     0.10072866    -1.95941273     0.36104318
