# total energy = -4983.88834983 eV

CRYSTAL
PRIMVEC
        4.95169920     0.00000000     0.00000000
       -0.00000804     3.30113242     0.00000000
       -2.47587878    -1.65061658     5.48565058
PRIMCOORD
6 1
Ti     -0.00021281     2.47596924     1.37141236    -0.00482493    -0.00445881     7.43178981
Ti      2.47602525    -0.82545374     4.11423747     0.00482493     0.00445881    -7.43178981
O       0.00005211     0.82527414     0.89356752     0.00173755     0.00422047    -2.66642240
O       2.47576022     0.82524130     4.59208237    -0.00173755    -0.00422047     2.66642240
O      -0.00002122    -0.82527718     3.63639269    -0.00235770    -0.00003882    -2.28829449
O       2.47583349     2.47579256     1.84925725     0.00235770     0.00003882     2.28829449
