# total energy = -19903.12760829 eV

CRYSTAL
PRIMVEC
        6.70469484     0.00000000     0.00000000
        0.35660504     7.12690676     0.00000000
        0.00000000     0.00000000    12.00368177
PRIMCOORD
24 1
Ti      2.64145313     4.22339817     4.45328032    -0.02452576    -1.10901414     0.63214708
Ti      4.41984648     2.90350832     7.55040159     0.02452576     1.10901414    -0.63214708
Ti      5.92764740     2.90351076     1.54851266     0.13414119     0.67864550    -0.58637449
Ti      1.13365227     4.22339601    10.45516938    -0.13414119    -0.67864550     0.58637449
Ti      2.46315075     0.65994506     1.54856077    -0.02452576    -1.10901414    -0.63214708
Ti      4.59814886     6.46696164    10.45512128     0.02452576     1.10901414     0.63214708
Ti      0.95534988     0.65994242     7.55035342    -0.13414119    -0.67864550    -0.58637449
Ti      6.10594979     6.46696428     4.45332850     0.13414119     0.67864550     0.58637449
O       2.24764484     2.50950492     6.12538693     1.49049682     1.46523624    -0.14995013
O       4.81365476     4.61740157     5.87829498    -1.49049682    -1.46523624     0.14995013
O       1.35587646     2.50953368     0.12358462    -1.28813807     1.11318164     0.13983798
O       5.70542321     4.61737288    11.88009694     1.28813807    -1.11318164    -0.13983798
O       4.63535238     1.05394826     0.12354570    -1.49049682    -1.46523624    -0.14995013
O       2.42594722     6.07295823    11.88013587     1.49049682     1.46523624     0.14995013
O       5.52712083     1.05391957     6.12542592     1.28813807    -1.11318164     0.13983798
O       1.53417871     6.07298706     5.87825599    -1.28813807     1.11318164    -0.13983798
O       0.46050446     4.33498854     3.24249397     0.48688587     0.06497489     0.59056230
O       6.60079521     2.79191795     8.76118801    -0.48688587    -0.06497489    -0.59056230
O       3.73565199     2.79185155     2.75938516     0.49952336     0.61024668    -0.06486227
O       3.32564768     4.33505494     9.24429655    -0.49952336    -0.61024668     0.06486227
O       0.28220208     0.77153522     2.75934685     0.48688587     0.06497489    -0.59056230
O       6.77909759     6.35537127     9.24433486    -0.48688587    -0.06497489     0.59056230
O       3.14734530     0.77160162     8.76122625    -0.49952336    -0.61024668    -0.06486227
O       3.91395437     6.35530486     3.24245559     0.49952336     0.61024668     0.06486227
