# total energy = -4985.36607436 eV

CRYSTAL
PRIMVEC
        3.62544514     0.00000000     0.00000000
        0.00000000     3.05874639     0.00000000
        0.00000000    -0.00006909     4.80179939
PRIMCOORD
6 1
Ti      1.81272247     1.52933860     2.40089984     0.00000000     0.00000000     0.00000000
Ti      0.00000000     0.00000000     0.00000000     0.00000000     0.00000000     0.00000000
O       1.81272247     0.59609115     0.93580002     0.00000000    -2.17516617    -1.61381623
O       1.81272247     2.46258610     3.86599961     0.00000000     2.17516617     1.61381623
O       0.00000000     0.93321992     3.33670079    -0.00000000     2.17422514    -1.61350513
O       0.00000000     2.12545728     1.46509890    -0.00000000    -2.17422514     1.61350513
