# total energy = -19075.81085685 eV

CRYSTAL
PRIMVEC
        7.60600008     0.00000000     0.00000000
        0.00000000     7.60600008     0.00000000
       -1.89786986    -1.89786986     4.85670466
PRIMCOORD
22 1
Ti      3.87044998     6.73337198     1.20068402     0.49788814    -0.01202737    -0.04767393
Ti      3.80505701     2.92008801     1.24577199    -0.29097134    -0.26942677    -1.07392576
Ti      0.03083997     6.60456003     1.00976100    -0.56028652    -0.84090274     1.42525608
Ti     -0.06653901     2.78968599     1.12400799     0.05567392     0.38348995     0.51980115
Ti      5.61402721     2.76403920     3.53002380     1.02967706     0.03183490     0.85970548
Ti     -1.43915177    -1.01493275     3.77008284    -1.18698158    -0.12029836    -1.46323232
Ti      1.89324925     2.92283624     3.63531779    -0.90908842    -1.36050154    -0.18146056
Ti      1.57580121    -0.92564875     3.78591381     0.28491150     1.33222402     0.33303949
O       3.65818201     4.73920001     0.68997802     0.21620543     1.38288480     0.66187933
O       4.20188300     1.08944800     0.85897898    -1.29518778    -1.83487282     0.32996625
O      -0.09087598     4.69695102     0.64790002     0.81311270    -0.35571971     0.27073701
O       7.29835299     0.85301801     0.70753099     1.02403066     0.94567729     1.28050087
O       5.49274624     4.76223022     4.03664783     0.97728002     0.12724651    -1.15589719
O       5.49305422     0.77381621     3.96781081     0.82844600     1.00761570    -0.19680054
O       1.99908322     4.87321822     4.19131883    -0.24206302    -0.66225060    -0.53946649
O       1.97542920     0.95658620     4.06200082    -0.60641830     0.08047762    -0.42587126
O       3.75671323     2.99430322     3.28074380    -0.18967061    -0.24954648    -0.60448689
O      -0.08391878     2.91697423     3.18934779     0.88389700    -0.19012235    -0.23790761
O       5.74392700     6.48685502     1.83182701    -0.11849962     0.28617829     0.42673695
O       5.68875699     3.07122501     1.58461101     0.00683374    -0.39113281     0.44594232
O       2.02940798     6.56787301     1.97961198     0.00184554     0.50663684    -0.86268873
O       1.93088597     2.69668399     1.58641799    -1.22063476     0.20253590     0.23584609
