# total energy = -19920.71812617 eV

CRYSTAL
PRIMVEC
        7.68599253     0.00000000     0.00000000
        0.00002573     3.93862457     0.00000000
        0.00000000     0.00000000    11.61231336
PRIMCOORD
24 1
Ti      2.78581799     2.33402535     4.30808543     0.10755366     0.02089048     2.21069317
Ti      4.90020044     1.60459940     7.30422804    -0.10755366    -0.02089048    -2.21069317
Ti      6.62868269     1.60460080     1.49802491     0.10803985    -0.02086965    -2.21086929
Ti      1.05733580     2.33402413    10.11428874    -0.10803985     0.02086965     2.21086929
Ti      2.78580518     0.36471312     1.49807148     0.10755366     0.02089048    -2.21069317
Ti      4.90021330     3.57391174    10.11424217    -0.10755366    -0.02089048     2.21069317
Ti      1.05732294     0.36471161     7.30418147    -0.10803985     0.02086965    -2.21086929
Ti      6.62869550     3.57391326     4.30813200     0.10803985    -0.02086965     2.21086929
O       2.43267431     1.38685672     5.92567463     2.08486333     0.65947509    -1.18046795
O       5.25334417     2.55176802     5.68663884    -2.08486333    -0.65947509     1.18046795
O       1.41038521     1.38687257     0.11955526    -2.08420487     0.65929254    -1.18123234
O       6.27563334     2.55175217    11.49275786     2.08420487    -0.65929254     1.18123234
O       5.25333131     0.58245574     0.11951760    -2.08486333    -0.65947509    -1.18046795
O       2.43268712     3.35616901    11.49279558     2.08486333     0.65947509     1.18046795
O       6.27562053     0.58243989     5.92571229     2.08420487    -0.65929254    -1.18123234
O       1.41039784     3.35618492     5.68660118    -2.08420487     0.65929254     1.18123234
O       0.27926564     2.39569477     3.13677553    -1.57435827     0.50154142     0.40753337
O       7.40675279     1.54293003     8.47553794     1.57435827    -0.50154142    -0.40753337
O       4.12227153     1.54289327     2.66941811    -1.57453773    -0.50159619    -0.40741716
O       3.56374690     2.39573154     8.94289519     1.57453773     0.50159619     0.40741716
O       0.27925284     0.42638243     2.66938103    -1.57435827     0.50154142    -0.40753337
O       7.40676565     3.51224232     8.94293227     1.57435827    -0.50154142     0.40753337
O       3.56373410     0.42641919     8.47557497     1.57453773     0.50159619    -0.40741716
O       4.12228439     3.51220555     3.13673845    -1.57453773    -0.50159619     0.40741716
