# total energy = -19904.10129735 eV

CRYSTAL
PRIMVEC
        7.31592589     0.00000000     0.00000000
        0.00003402     6.37065639     0.00000000
        0.00000000     0.00000000    12.02378237
PRIMCOORD
24 1
Ti      2.65169141     3.77524495     4.46073765     0.39202447    -0.94108710     1.01327059
Ti      4.66426857     2.59541117     7.56304519    -0.39202447     0.94108710    -1.01327059
Ti      6.30952760     2.59541323     1.55110573     0.39125365     0.94125165    -1.01383649
Ti      1.00643238     3.77524309    10.47267726    -0.39125365    -0.94125165     1.01383649
Ti      2.65167467     0.58991689     1.55115394     0.39202447    -0.94108710    -1.01327059
Ti      4.66428531     5.78073943    10.47262904    -0.39202447     0.94108710     1.01327059
Ti      1.00641565     0.58991456     7.56299698    -0.39125365    -0.94125165    -1.01383649
Ti      6.30954433     5.78074170     4.46078587     0.39125365     0.94125165     1.01383649
O       2.31554873     2.24321632     6.13564429     0.92408567     1.44295557    -0.90909022
O       5.00041125     4.12743980     5.88813855    -0.92408567    -1.44295557     0.90909022
O       1.34248092     2.24324206     0.12379160    -0.92397229     1.44309055    -0.90964198
O       5.97347913     4.12741412    11.89999091     0.92397229    -1.44309055     0.90964198
O       5.00039451     0.94211154     0.12375256    -0.92408567    -1.44295557    -0.90909022
O       2.31556547     5.42854458    11.90002994     0.92408567     1.44295557     0.90909022
O       5.97346232     0.94208586     6.13568332     0.92397229    -1.44309055    -0.90964198
O       1.34249752     5.42857032     5.88809952    -0.92397229     1.44309055     0.90964198
O       0.26582507     3.87499438     3.24792370    -0.82928803     0.08532723    -0.01208033
O       7.05013491     2.49566174     8.77585914     0.82928803    -0.08532723     0.01208033
O       3.92379534     2.49560253     2.76400597    -0.82944153    -0.08521102     0.01195461
O       3.39216464     3.87505359     9.25977667     0.82944153     0.08521102    -0.01195461
O       0.26580827     0.68966612     2.76396755    -0.82928803     0.08532723     0.01208033
O       7.05015171     5.68099000     9.25981509     0.82928803    -0.08532723    -0.01208033
O       3.39214784     0.68972532     8.77589749     0.82944153     0.08521102     0.01195461
O       3.92381214     5.68093079     3.24788529    -0.82944153    -0.08521102    -0.01195461
