# total energy = -4983.23418868 eV

CRYSTAL
PRIMVEC
        4.29261177     0.00000000     0.00000000
        2.02004516     3.78760258     0.00000000
       -3.15636879    -1.89382549     5.66907840
PRIMCOORD
6 1
Ti      1.51493259     2.84084781     1.41726922     0.00037744    -0.00037744     0.00000000
Ti      1.64135539    -0.94707085     4.25180848    -0.00037744     0.00037744     0.00000000
O       0.50505577     0.94689582     0.92344643    -0.00057696    -0.00080398    -2.05837865
O       2.65123202     0.94688112     4.74563134     0.00057696     0.00080398     2.05837865
O      -0.50501497    -0.94687130     3.75798563    -0.00080398    -0.00057696    -2.05837865
O       3.66130268     2.84064814     1.91109208     0.00080398     0.00057696     2.05837865
