# total energy = -4985.24997013 eV

CRYSTAL
PRIMVEC
        4.22752528     0.00000000     0.00000000
        1.62596374     3.90233416     0.00000000
       -2.92678376    -1.95119325     5.51093007
PRIMCOORD
6 1
Ti      1.21935853     2.92690085     1.37773223    -0.00000617     0.00000617     0.00000000
Ti      1.70734686    -0.97575990     4.13319709     0.00000617    -0.00000617    -0.00000000
O       0.40653489     0.97557843     0.89768534    -0.00080038    -0.00109478    -1.72001929
O       2.52017031     0.97556244     4.61324404     0.00080038     0.00109478     1.72001929
O      -0.40649837    -0.97555409     3.65315026    -0.00109478    -0.00080038    -1.72001929
O       3.33320350     2.92669491     1.85777917     0.00109478     0.00080038     1.72001929
