# total energy = -39040.36436945 eV

CRYSTAL
PRIMVEC
        7.60629642    -0.00000847    -0.00005503
       -0.00000847     7.60629642    -0.00005503
       -3.80314186    -3.80314186     9.70738094
PRIMCOORD
46 1
Ti      1.90150436     4.70682584     6.10275018    -0.00016147    -0.07771574    -0.19736129
Ti      3.84115797     6.66435617     1.19165532    -0.08504595    -0.01833506     0.02324304
Ti      1.90159442     1.00122090     5.94786712    -0.00043503    -0.01030679    -0.07386062
Ti      3.79835179     2.84502728     1.23344765    -0.02547090     0.01981524     0.06569402
Ti     -1.90164800     4.76235410     6.05966557     0.00003908     0.06557755     0.03315002
Ti     -0.03817297     6.66434075     1.19171886     0.08533006    -0.01846181     0.02332788
Ti     -1.90174112     0.93787823     6.10152100    -0.00014810     0.02805512     0.20897060
Ti      0.00445787     2.84494295     1.23351356     0.02569330     0.02017828     0.06580690
Ti      3.89025694     0.94092606     8.54823168    -0.00233302     0.00695021    -0.04293538
Ti      5.70494843     2.84552888     3.64927231    -0.00032139    -0.05387620     0.02175874
Ti      3.79569846    -2.84567048     8.48702693    -0.05014810     0.03475593     0.03543521
Ti      5.70478134    -0.94046519     3.65298263    -0.00045534     0.03581137    -0.07495977
Ti     -0.08719314     0.94097395     8.54809969     0.00262998     0.00694969    -0.04248081
Ti      1.90178116     2.91027837     3.67906055    -0.00013138    -0.02330526     0.08596255
Ti      0.00781801    -2.84562377     8.48706472     0.04997249     0.03480709     0.03548921
Ti      1.90160050    -0.98337238     3.47351618    -0.00026688     0.13081161     0.11137380
O       1.90163848     2.85700730     5.64725683     0.00012213    -0.03303483     0.04040182
O       3.83764917     4.75077626     0.81215855     0.01795633    -0.01069734    -0.06544437
O       3.78813716     0.95182349     0.76398051    -0.02523487     0.00565951     0.01909790
O      -1.90154654     2.83263041     5.70762962     0.00006711    -0.00425004     0.03108542
O      -0.03451360     4.75076780     0.81226453    -0.01824995    -0.01080738    -0.06576293
O      -1.90158581    -0.93322876     5.67151692     0.00012341    -0.01201631    -0.07254447
O       0.01511318     0.95180718     0.76402119     0.02509809     0.00557955     0.01927145
O       3.67662760     2.83053467     8.86387615    -0.02523153    -0.03752038     0.00396953
O       5.70469749     4.75395185     4.08777038     0.00009230    -0.04134284     0.00646504
O       3.70765090    -0.93174445     8.90981305     0.00519054     0.02256427     0.04185757
O       5.70468861     0.95210374     4.07782738     0.00008099     0.01557806     0.13255584
O       0.12652799     2.83052471     8.86388162     0.02527293    -0.03729721     0.00376461
O       1.90144734     4.83671603     4.09672052     0.00000437     0.02622655    -0.13948574
O       0.09551136    -0.93169978     8.90984550    -0.00515018     0.02257609     0.04163877
O       1.90148102     0.85217931     4.05773423     0.00011210     0.01535978     0.01744828
O       3.78732505     2.84997684     3.25299013    -0.01372661     0.01817102    -0.02169960
O       1.90160687    -2.81448532     8.08384806     0.00015529    -0.00012238    -0.11893516
O       3.82041177    -0.95169044     3.18515585    -0.02002530    -0.01753956     0.00071888
O      -1.90162815     0.97345595     8.08604081     0.00064046     0.05798534     0.05692116
O       0.01579906     2.84995616     3.25300035     0.01387882     0.01802087    -0.02159033
O      -1.90155645    -2.87033831     8.07645511     0.00019618    -0.03593504     0.05906263
O      -0.01729814    -0.95167986     3.18521225     0.02008238    -0.01748145     0.00059007
O       3.78862324     4.86093129     6.46432338    -0.03966854     0.00510184     0.03745533
O       5.70469844     6.67322860     1.63298201     0.00001286     0.04909266    -0.07828164
O       3.67777741     0.82701181     6.54654726    -0.03754892    -0.07449594    -0.10302080
O       5.70471119     2.83342931     1.68395664    -0.00018795    -0.04755566    -0.03419157
O       0.01451411     4.86093131     6.46437051     0.03981818     0.00516972     0.03737640
O       1.90157341     6.63554148     1.54173662    -0.00010619    -0.01102155    -0.04502620
O       0.12546976     0.82700001     6.54664487     0.03740494    -0.07459827    -0.10280380
O       1.90155805     2.86851817     1.62216478     0.00007302     0.01691966     0.04049129
