# total energy = -19072.37014820 eV

CRYSTAL
PRIMVEC
        5.17600016     0.00000000     0.00000000
        0.00000000     5.50899976     0.00000000
        0.00000000     0.00000000     9.26300011
PRIMCOORD
22 1
Ti      1.82851801     3.26598398     3.35511802    -0.08853263     2.36949741    -0.71395936
Ti      3.61461998     2.17978000     6.00109100     0.73279244     0.38928496    -1.68883308
Ti      4.36667700     2.27414902     1.38466303    -0.15714126    -0.54493935    -2.68486467
Ti      0.83834398     3.23215400     8.06726299    -0.34120788     0.21961394     1.15610931
Ti      1.77325503     0.59549200     1.28551701     1.03568316    -1.20551461    -1.64012994
Ti      3.37404103     5.20550301     7.94627301    -0.26620106     0.41038678     1.24925989
Ti      0.67513100     0.12934600     6.08229298     0.80929924    -0.59062324    -0.43257156
Ti      4.48723099     4.86394899     3.44357899    -0.38962383     0.25899940    -0.43258081
O       3.46334900     3.39319200     4.22420502     1.25658291    -0.52700692     2.48195494
O       1.02440201     1.98019598     0.25399100    -1.13561529     0.36804327    -1.53662423
O       4.40091900     3.72724202     8.77115800    -0.90308901     0.18492872     0.01464012
O       3.46269600     0.97621201     0.08093999    -0.07854183     0.16422696     1.31755562
O       1.80406600     4.80631402     8.96556503    -1.26343079    -0.73716023    -0.06979725
O       4.41313802     0.77608098     4.95737402    -0.34893688     0.34236257    -1.20648264
O       1.14061500     4.84756201     4.17962099    -1.49026414     0.11257811     0.91233933
O       0.18656398     3.58086101     2.19330000     0.21259123     0.90058809     1.16490094
O       4.68120599     1.01901700     7.32718299     1.67175375     0.95392539    -0.87494390
O       2.56628101     2.20513103     2.08030700     1.22941354    -2.11204222     0.04365786
O       1.69854202     4.05018302     6.56732198     1.34695182    -0.87115332     0.45938586
O       0.05131199     0.92678701     2.28392102     0.22686394    -1.04829134     0.56119104
O       2.30387698     1.16953898     6.67159498    -2.18444040    -0.51337981     0.70153810
O       2.82110398     4.61995399     2.15837102     0.12509296     1.47567595     1.21825495
