# total energy = -19517.91629299 eV

CRYSTAL
PRIMVEC
        5.93400000     0.00000000     0.00000000
        0.00000000     9.29699974     0.00000000
        0.00000000     0.00000000     4.64899994
PRIMCOORD
23 1
Ti      4.57510399     7.09068098     2.27482198    -0.23194342     0.57837270    -0.08581986
Ti      4.36061501     2.27654498     2.34278299     0.91182973    -0.19650794    -0.06506385
Ti      1.47066200     7.04151697     2.23885401     0.56929336     0.23496035    -0.18501228
Ti      1.40382602     2.26895102     2.31022801    -0.54838771     0.63946599     0.10068058
Ti      3.01655798     4.46715601     0.12336101    -0.32533235    -0.31833509    -0.29389983
Ti      2.89089500     9.24072502     4.60719902     1.45621578     0.47318472     0.58907106
Ti      0.03413500     4.70821102     0.07075200     0.01580046    -1.34051558    -0.48579392
Ti      5.91988901     0.04570700     0.01003399    -0.43881548     1.00240922    -0.05513090
O       4.38550201     5.56779601     0.92027702    -0.13113505     0.53196093     0.06828724
O       4.48602102     0.86336798     0.91975102     0.07512072     0.64693479     0.15252818
O       1.56032802     5.52768702     0.87534998    -0.01446092     0.91545370     0.40546955
O       1.54894600     0.89660798     0.86521798    -0.39301949     0.18506962     0.09912583
O       4.60053800     8.28335702     3.91242501    -1.47440660    -0.41959288    -1.61502851
O       4.41647401     3.73492700     3.73871702    -0.20548855     0.40834970    -0.50868986
O       1.57979999     8.35895798     3.73293301    -0.57989968    -0.69451230    -0.26936044
O       1.31999000     3.73431098     3.63959498     1.11693494     0.89779896     0.59907754
O       2.86976500     1.33875600     3.16763697     0.78980205     0.23700721     0.38896743
O       0.07473099     6.31746898     3.18660200    -0.36022737    -2.35532035     1.13876078
O       5.91233300     1.47063099     3.21747700    -0.31665178    -0.94223895     0.29720215
O       3.00393901     8.00154097     1.56672201     0.40497358    -0.65870248    -0.20887341
O       2.93968900     3.11867400     1.33647699    -0.00765855     0.36304479     0.15849546
O       0.11806998     7.95644899     1.38173699    -0.41437585    -0.13463715    -0.07544519
O       5.86839800     3.28587200     1.38206201     0.10183218    -0.05364994    -0.14954750
