# total energy = -19075.81227987 eV

CRYSTAL
PRIMVEC
        7.60600008     0.00000000     0.00000000
        0.00000000     7.60600008     0.00000000
       -1.89786986    -1.89786986     4.85670466
PRIMCOORD
22 1
Ti      3.98945300     6.67622698     1.12976999     1.02669304    -0.75266939     0.83372653
Ti      3.59016702     2.72973899     1.17803100     1.44661245     0.71938028    -0.13226171
Ti      0.17030501     6.77967600     1.15608200    -2.30785622    -0.62936618    -1.29278072
Ti     -0.09858101     2.92474001     1.15063100    -1.26152946     0.42178757     0.06026437
Ti      5.62057123     2.84137824     3.57140281     0.00647790    -0.09925850    -0.04157347
Ti     -1.34856880    -0.92776578     3.75552184    -0.52563575    -0.09905410    -1.49957873
Ti      1.82097120     2.87180324     3.70413079    -0.04243119    -1.96487685    -0.40888037
Ti      1.45841922    -1.05109080     3.72196480     0.91930033     0.90405600     0.50746628
O       3.78206399     4.62862001     0.74352700    -0.56424242     1.06590880     0.65005740
O       4.02283302     0.87869200     0.72652602    -0.92550158    -0.49068314     1.27709338
O      -0.20614899     4.80295602     0.70329001     0.51920131    -0.10778068     0.02109848
O      -0.20296202     0.99867098     0.63165798     0.33344649    -0.02421080     2.16646169
O      -1.57756777     4.83259524     4.03736979    -0.37448157    -0.44182264    -0.31113291
O       5.69851523     0.91550723     3.96618079     0.43115796     1.29519884     0.42965284
O       2.24591821     4.65901923     4.14111980    -0.78338200     1.23502858    -0.82444999
O       1.79557620     0.78836022     4.01834581    -0.79865641     0.24646810    -0.07622527
O       3.66915921     2.60908123     3.14498581     0.44166015     0.36608023     0.50580843
O      -0.11228078     2.95370823     3.26278781     0.99759971    -0.54016712    -0.58146831
O       5.81483998     6.70650200     1.85843002    -0.55635736    -0.25045228    -0.13398126
O       5.55722898     2.97758101     1.58569498     1.03501467    -0.52273066     0.57261805
O       1.84712298     6.68842298     1.90425301     1.85668581    -0.29101170    -0.85204539
O       1.78966201     2.88695501     1.69317701    -0.87377585    -0.03982409    -0.86986957
