# total energy = -19073.21462544 eV

CRYSTAL
PRIMVEC
        5.17600016     0.00000000     0.00000000
        0.00000000     5.50899976     0.00000000
        0.00000000     0.00000000     9.26300011
PRIMCOORD
22 1
Ti      1.97243099     3.35284203     3.31824701     0.56776175     0.14671903     1.18615523
Ti      3.52220700     2.15454798     5.95225302     0.12202306     0.21342478    -1.77480283
Ti      4.44443600     2.31237001     1.31190200    -0.22473044    -0.55323193    -1.83078554
Ti      0.64000300     3.19331398     8.04341398    -0.33404530     0.63001075     0.30620384
Ti      1.86573198     0.45229102     1.31473400    -0.17345851     0.47145565    -2.36439377
Ti      3.31177501     5.18867702     7.97160002    -0.23032362     0.98280223     1.37318660
Ti      0.68308702     0.16509499     6.16553701    -1.33975068    -1.49678086    -2.10932662
Ti      4.59534201     4.97731998     3.20911902     0.43698023    -0.48002745     2.26237545
O       3.73907501     3.28037702     4.28582401    -1.20599927     0.70554337     1.14423158
O       0.75884600     1.91789499     0.14933303     0.61751673     0.35633575    -0.00046151
O       4.25549702     3.83997900     8.93483898     0.03260880    -1.05194848    -0.00439505
O       3.50438098     0.81424398     0.29844999    -0.37133814     0.47496392    -0.85437995
O       1.75218599     4.78290100     9.05853999    -1.00844231    -1.06479423    -0.37118567
O       4.44836303     0.88686202     4.89764499    -0.31023534    -0.75149131    -0.31409122
O       1.11061102     4.87455402     4.15332602    -0.92279395    -0.39422405     1.79488393
O       0.37264900     3.64388502     2.18875198    -0.83971463    -0.06121567    -0.00564846
O       4.62499398     1.19203499     7.25841900    -0.27954458     0.18954822     0.44742637
O       2.69331201     1.90795201     2.22607798     0.17726683     0.99780565     0.60378241
O       1.66344900     4.04028503     6.62094902     0.90600053    -0.85116145     0.53678278
O       0.12826198     0.89929498     2.21968001     0.06826616    -0.46608615     0.68110322
O       1.98761499     1.15164702     6.87338800     2.21725077     1.45247791     0.03755535
O       2.74787098     4.69646699     2.38433701     2.09470166     0.54987458    -0.74421611
