# total energy = -19516.52856880 eV

CRYSTAL
PRIMVEC
        5.93400000     0.00000000     0.00000000
        0.00000000     9.29699974     0.00000000
        0.00000000     0.00000000     4.64899994
PRIMCOORD
23 1
Ti      4.31341002     6.99959598     2.22176000     1.64824049     0.28721624    -0.76583241
Ti      4.57703200     2.31233900     2.38916400     0.05179489     0.17347188     0.01977693
Ti      1.40463799     6.97770000     2.23602101    -1.99132297    -0.14607522    -0.00863762
Ti      1.49424500     2.35913700     2.29565098     0.12716810     0.17046729     0.75627562
Ti      2.98240001     4.46378002     0.16985198    -1.33543122     0.07413830    -0.75010394
Ti      2.98600598     0.27423902     0.00546201    -1.64549866    -0.85520554    -0.50239503
Ti      0.00838201     4.56170099     0.01124401     0.51571515     0.99006637    -0.88603462
Ti      5.85961700     9.25731198     4.50060901     1.92477636    -1.19137663     0.17554573
O       4.26067999     5.47884798     0.89993598     1.87268939     1.69808700     0.91923091
O       4.69243899     0.94275499     0.88850802    -1.63347927     0.02352046     0.34640871
O       1.42614698     5.47701301     1.03965899     0.30405774     0.58318452    -0.10148354
O       1.48678900     1.14612500     0.91221998     1.14546031    -1.65624459    -0.99020059
O       4.51738801     8.38707899     3.55788302    -0.54668101     0.25065206     0.65381352
O       4.32093101     3.51461601     3.82026000     1.18007020     1.12630378     0.64360290
O       1.67795899     8.51114798     3.72617499    -0.55797536    -0.60715467     0.00378878
O       1.57048198     3.74527501     3.79025602    -1.16487266    -0.10596831     0.01363457
O       3.08609298     1.41294898     3.15011200    -0.43122018    -0.68977478     0.67369407
O       0.00679702     5.95048001     3.43682002    -0.15113156     1.01817806    -1.32061652
O       0.17503601     1.40982498     3.33449302    -1.11257383     0.82698638    -1.24668853
O       2.85640402     7.79092398     1.34078100     0.90764140     0.29792592     0.57043544
O       2.89578899     3.40918702     1.56310302     1.37203397    -1.87514531     0.89923492
O       5.85483397     7.68779602     1.23718402     0.35591717     0.42724834     0.85316408
O       0.06024699     3.39398799     1.58919400    -0.83537924    -0.82050206     0.04338635
