# total energy = -19073.47715976 eV

CRYSTAL
PRIMVEC
        5.17600016     0.00000000     0.00000000
        0.00000000     5.50899976     0.00000000
        0.00000000     0.00000000     9.26300011
PRIMCOORD
22 1
Ti      1.83317599     3.40601000     3.42941498    -2.27775939    -0.49266726    -1.11445973
Ti      3.60368099     2.23702401     5.88901300    -0.52176470    -0.52444842     1.09201374
Ti      4.29757698     2.30528999     1.27281199     0.86753604    -1.00413983    -0.91935021
Ti      0.96014598     3.12794799     8.08248398     0.17026340    -0.42486159     0.10966890
Ti      1.72433899     0.48011802     1.28769802     0.35870425     1.16917180    -1.33108091
Ti      3.26862500     5.06977598     8.02526902     0.61874700     0.84326430     2.11417032
Ti      1.44975998     0.28399001     5.84063001    -2.44658914    -0.98811928     1.37971489
Ti      4.22741999     4.99551500     3.36167601     1.88750152     0.10562713     1.18525149
O       3.29838302     3.43619199     4.45560799     1.71907235    -0.17931317     1.14695643
O       0.86482401     1.93310201     0.30576502     0.32519402    -0.10394228    -1.10025670
O       4.39718301     3.50793700     8.59461998    -0.75288639     0.47751677     0.45999135
O       3.36208898     0.74032998     0.32302202     0.93030800     0.57647317    -0.12775893
O       1.71298999     4.68943501     9.03474500    -1.27021696    -1.23414874     0.37559357
O       2.85517501     0.66608302     4.91971702     3.01869709     0.83075408    -3.00271793
O       0.70892098     4.64875700     4.45331702    -0.48274922    -0.09785545     0.94835458
O       0.08503201     3.51415700     2.32596902    -0.69654399     0.08826498     0.36876498
O       0.10487700     1.68757700     6.44932001     0.50140284     0.33870363    -0.20571815
O       2.78284097     2.11451101     2.33347402    -1.28205998    -0.78421118    -0.36243004
O       2.38002300     4.07754900     6.74373798    -1.29741950    -1.37317220    -0.86098718
O       5.10709800     0.69017101     2.19910603     0.47156441     0.19119039     0.58928729
O       2.54763798     1.14836898     7.21095000     0.51273498     1.63798435     0.41817517
O       2.59358301     4.74744797     2.49283702    -0.35373688     0.94792906    -1.16318241
