# total energy = -19958.91455920 eV

CRYSTAL
PRIMVEC
        7.60600008     0.00000000     0.00000000
        0.00000000     7.60600008     0.00000000
       -1.89786986    -1.89786986     4.85670466
PRIMCOORD
24 1
Ti      3.72880002     6.66838801     1.16926598    -0.79177048     1.11951787     0.81884678
Ti      3.99565099     2.96839200     1.17741700    -1.87541862    -1.78621056     0.56919463
Ti     -0.10268801     6.62770201     1.24078000     0.35976791    -0.99043558     1.47742559
Ti      0.05265102     2.69024199     1.23661997     0.88436186     1.15178188    -0.08596872
Ti      5.71612222     2.72729324     3.69122183     0.10421251     0.27852874     0.54330052
Ti      5.61347221    -1.07235780     3.65881882     0.94589455     0.18585123    -0.94575828
Ti      1.92758825     2.91289623     3.60475183     0.01074079    -0.82050746    -1.26575764
Ti      2.02042425    -0.82340276     3.66025882    -2.20049797     0.37440547    -0.32196009
O       4.13508300     4.79226400     0.81189602    -1.08294417     0.11732154    -1.82415363
O       3.85113300     1.07219799     0.73378898     0.04822054     1.32893661     0.38070544
O       0.07900902     4.72675402     0.81625702    -0.92628679    -0.86062285    -1.00259999
O       7.13947001     0.92159298     1.01449100     1.70919700    -0.81940137    -1.27068799
O       5.55250422     4.67388223     4.07993681    -0.16793706     0.69028695     0.07445403
O       5.77850921     0.76887020     4.08888181     0.28146725     1.51195860     0.47250826
O       1.95414321     5.00191323     4.24376283    -0.00343782    -3.66103012    -2.28283758
O       1.67050722     1.08132624     3.61788384     0.54455034     0.93936549     1.95808270
O       3.78997022     2.71526223     3.06237679     0.42507422     0.61497879     1.61943975
O       3.76744420    -0.67371477     3.23453583     0.10323729    -0.36413853     0.43589291
O      -0.07306779     3.03202525     3.13531081     1.60024672    -0.07804998     1.13629175
O       0.02410720    -1.13804378     3.14979783    -2.59874580     0.32872903     0.72177192
O       5.47881999     6.67171802     1.73296702     2.59329506    -0.52709383     0.23985650
O       5.72934800     2.81448800     1.71245801     0.25053584     0.36397244    -0.69414489
O       1.79006101     6.51181700     1.70379099     1.82741456     0.57059382    -1.56686016
O       2.03626601     2.88149702     1.49368899    -2.04117770     0.33126157     0.81295818
