# total energy = -4989.62355211 eV

CRYSTAL
PRIMVEC
        3.89023522     0.00000000     0.00000000
        0.95758771     3.77053787     0.00000000
       -2.42394689    -1.88529649     5.00466592
PRIMCOORD
6 1
Ti      0.71806446     2.82804780     1.25116640     0.00015709    -0.00015709     0.00000000
Ti      1.70581176    -0.94280627     3.75349920    -0.00015709     0.00015709     0.00000000
O       0.23943772     0.94262910     0.81521912    -0.00043503    -0.00049057    -0.81983563
O       2.18443833     0.94261234     4.18944647     0.00043503     0.00049057     0.81983563
O      -0.23940992    -0.94260748     3.31755192    -0.00049057    -0.00043503    -0.81983563
O       2.66328596     2.82784886     1.68711367     0.00049057     0.00043503     0.81983563
