# total energy = -4989.50494961 eV

CRYSTAL
PRIMVEC
        4.19297068     0.00000000     0.00000000
       -0.00000847     3.79364056     0.00000000
       -2.09651492    -1.89685836     5.10911906
PRIMCOORD
6 1
Ti     -0.00018329     2.84537297     1.27727952    -0.00122127    -0.00006273     1.74164510
Ti      2.09663024    -0.94859065     3.83183893     0.00122127     0.00006273    -1.74164510
O       0.00004260     0.94840300     0.83223366    -0.00003008    -0.00014887    -0.50243591
O       2.09640419     0.94837921     4.27688490     0.00003008     0.00014887     0.50243591
O      -0.00002150    -0.94838973     3.38679308    -0.00185865    -0.00027305    -0.96790577
O       2.09646829     2.84517188     1.72232548     0.00185865     0.00027305     0.96790577
