# total energy = -19934.05510951 eV

CRYSTAL
PRIMVEC
        5.84187952     0.00000000     0.00000000
        2.92591968     5.48603999     0.00000000
        0.00000000     0.00000000    10.81972023
PRIMCOORD
24 1
Ti      3.85129767     3.25102222     4.01403905     1.35552851    -3.42720414     0.75564364
Ti      4.91650169     2.23501791     6.80568129    -1.35552851     3.42720414    -0.75564364
Ti      6.23026734     2.23501986     1.39577789    -3.18539257    -0.72025188     0.95449078
Ti      2.53753220     3.25102052     9.42394251     3.18539257     0.72025188    -0.95449078
Ti      2.38833805     0.50800241     1.39582129     1.35552851    -3.42720414    -0.75564364
Ti      6.37946141     4.97803793     9.42389917    -1.35552851     3.42720414     0.75564364
Ti      1.07457230     0.50800030     6.80563789     3.18539257     0.72025188     0.95449078
Ti      7.69322715     4.97803998     4.01408240    -3.18539257    -0.72025188    -0.95449078
O       2.87925787     1.93172798     5.52122044     1.48677592     1.99139856    -1.19960262
O       5.88854156     3.55431219     5.29849991    -1.48677592    -1.99139856     1.19960262
O       2.10226007     1.93175007     0.11139509     0.91532695    -1.23575208     1.28034223
O       6.66553942     3.55429015    10.70832491    -0.91532695     1.23575208    -1.28034223
O       4.42558183     0.81129217     0.11135997    -1.48677592    -1.99139856    -1.19960262
O       4.34221758     4.67474795    10.70836002     1.48677592     1.99139856     1.19960262
O       5.20257970     0.81127013     5.52125549    -0.91532695     1.23575208     1.28034223
O       3.56521967     4.67477006     5.29846479     0.91532695    -1.23575208    -1.28034223
O       1.99195918     3.33692047     2.92267636     0.67368327     2.31745878     2.19616206
O       6.77584024     2.14911970     7.89704393    -0.67368327    -2.31745878    -2.19616206
O       4.27938270     2.14906846     2.48721817     1.15885782     1.39060429     0.90039912
O       4.48841673     3.33697171     8.33250194    -1.15885782    -1.39060429    -0.90039912
O       0.52899945     0.59390045     2.48718364     0.67368327     2.31745878    -2.19616206
O       8.23879995     4.89213967     8.33253648    -0.67368327    -2.31745878     2.19616206
O       3.02545700     0.59395169     7.89707840    -1.15885782    -1.39060429     0.90039912
O       5.74234241     4.89208843     2.92264183     1.15885782     1.39060429    -0.90039912
