# total energy = -19930.00086769 eV

CRYSTAL
PRIMVEC
        6.71812650     0.00000000     0.00000000
        0.00003124     5.85009692     0.00000000
        0.00000000     0.00000000    11.04129432
PRIMCOORD
24 1
Ti      2.43501623     3.46676190     4.09624158     0.34415154    -0.76228506     0.79064023
Ti      4.28314157     2.38333477     6.94505317    -0.34415154     0.76228506    -0.79064023
Ti      5.79396308     2.38333666     1.42436168     0.34416105     0.76236759    -0.79048545
Ti      0.92419472     3.46676019     9.61693320    -0.34416105    -0.76236759     0.79048545
Ti      2.43500086     0.54171356     1.42440595     0.34415154    -0.76228506    -0.79064023
Ti      4.28315694     5.30838329     9.61688893    -0.34415154     0.76228506     0.79064023
Ti      0.92417935     0.54171142     6.94500890    -0.34416105    -0.76236759    -0.79048545
Ti      5.79397845     5.30838537     4.09628585     0.34416105     0.76236759     0.79048545
O       2.12634047     2.05991849     5.63428814     0.97075044     1.30853130    -0.73724842
O       4.59181733     3.79017818     5.40700661    -0.97075044    -1.30853130     0.73724842
O       1.23278404     2.05994213     0.11367633    -0.97003773     1.30859018    -0.73832443
O       5.48537383     3.79015460    10.92761811     0.97003773    -1.30859018     0.73832443
O       4.59180196     0.86512966     0.11364049    -0.97075044    -1.30853130    -0.73724842
O       2.12635584     4.98496701    10.92765396     0.97075044     1.30853130     0.73724842
O       5.48535840     0.86510608     5.63432399     0.97003773    -1.30859018    -0.73832443
O       1.23279928     4.98499065     5.40697077    -0.97003773     1.30859018     0.73832443
O       0.24410396     3.55836060     2.98252916    -0.75973581     0.05512859     0.05291101
O       6.47405385     2.29173607     8.05876559     0.75973581    -0.05512859    -0.05291101
O       3.60317393     2.29168170     2.53815334    -0.75938254    -0.05485836    -0.05316812
O       3.11498387     3.55841497     8.50314123     0.75938254     0.05485836     0.05316812
O       0.24408853     0.63331207     2.53811806    -0.75973581     0.05512859    -0.05291101
O       6.47406928     5.21678459     8.50317651     0.75973581    -0.05512859     0.05291101
O       3.11496844     0.63336644     8.05880081     0.75938254     0.05485836    -0.05316812
O       3.60318936     5.21673022     2.98249388    -0.75938254    -0.05485836     0.05316812
