# total energy = -19961.45579148 eV

CRYSTAL
PRIMVEC
        7.60600008     0.00000000     0.00000000
        0.00000000     7.60600008     0.00000000
       -1.89786986    -1.89786986     4.85670466
PRIMCOORD
24 1
Ti      3.82627701     6.76624802     1.13705602     0.80152834    -1.77648125     0.08920909
Ti      3.83965001     2.78577600     1.15127501    -1.29122906     1.27295133     0.95466536
Ti     -0.02680002     6.61744798     1.24606399    -0.95991838     0.11861403    -1.14703819
Ti     -0.09344799     2.81313002     1.31846502     0.94430741     0.25905365    -0.32437307
Ti      5.67483121     2.81282320     3.71223784    -0.41241538     0.19828972     0.09192546
Ti      5.68494125    -0.93347280     3.64464280    -0.00459302    -0.25223406    -0.22427458
Ti      1.96774222     2.82037123     3.67113479     0.04138629     0.54806735    -0.27328240
Ti      1.97642924    -0.93876478     3.54543281    -0.07012712    -0.56509475    -0.15370806
O       3.95677001     4.78970400     0.78966999    -0.57811096    -0.46733443    -0.06118456
O       3.91492600     0.93827900     0.68840298    -0.38804672     0.60769563     0.23579622
O      -0.27179602     4.69130100     0.80757301     0.81740002     1.30365032     0.44917575
O      -0.06508700     1.03294198     0.68790402     0.17909566    -1.81800509     1.70513414
O       5.48345320     4.74584023     4.02709782     0.68661181    -0.02560305     0.52642740
O       5.73170723     0.94084021     4.19059380     0.28121168     0.65237885    -1.23664734
O       2.12927521     4.77422625     3.98764681    -0.73908008     0.15691680     0.21128588
O       1.84575220     0.90577820     4.03125583    -0.29454852     0.27792993     0.32248999
O       3.75481221     2.63382921     3.22212784     0.83550085     0.12038552     0.00014964
O       3.82087824    -0.82784076     3.14776679    -0.33986937     0.06301159     0.00397004
O      -0.03371579     2.92601422     3.25609281    -0.07880768    -0.16274601     0.44715666
O      -0.04824678    -1.02568479     3.11995382     1.02402269    -0.17498369     1.15304944
O       5.72528699     6.84125498     1.66104802    -0.53416102    -0.12332841    -0.61112317
O       5.62162799     2.83168001     1.73595898     0.56724753    -0.34856021    -0.51244676
O       1.91090699     6.72336000     1.60904000    -0.08198171    -0.09490177    -0.77756770
O       1.92711500     2.79946698     1.70806901    -0.40542327     0.23032851    -0.86878971
