# total energy = -19072.58414011 eV

CRYSTAL
PRIMVEC
        5.17600016     0.00000000     0.00000000
        0.00000000     5.50899976     0.00000000
        0.00000000     0.00000000     9.26300011
PRIMCOORD
22 1
Ti      1.76533700     3.26075201     3.32245900    -0.33368252     1.46084711     0.35524714
Ti      3.42760699     2.22153298     6.09807501    -1.19159389     1.96042704    -2.00016319
Ti      4.52516898     2.08215500     1.23094100    -0.47950372     2.42515436    -0.42386888
Ti      0.88517299     3.07706098     7.97811001    -0.32652894     1.63789925     1.09972551
Ti      1.87911302     0.52201103     1.32020701    -0.04859798    -0.57072186    -1.50451474
Ti      3.28160799     5.10546501     8.05633199     0.30038389    -1.30953326     2.56351833
Ti      1.51585998     0.20803799     5.85288200    -1.92925060    -0.16508700    -1.79851330
Ti      4.23803602     5.05458399     3.43437099     0.36022994    -2.39321225     0.78867976
O       3.37844500     3.60349397     4.38242299    -0.83945110    -1.01612169     1.44506207
O       0.88752598     1.89526197     0.13095301     0.27527758    -0.42729539     0.21313785
O       4.32416999     3.66004201     8.76568001     0.62309423    -0.20708084    -0.79314320
O       3.52061799     0.82285999     0.31026800     0.14995656    -0.23986165    -0.69870886
O       1.78013502     4.73033502     9.00216800    -1.31457211    -0.67262166     0.84246494
O       2.96885101     0.89115100     4.84780999     0.10477044    -0.38912298    -0.78836686
O       0.68883400     4.49324001     4.43509100     0.10620383     1.60360278     1.49607946
O       5.10243299     3.60109199     2.37528199     0.15307711    -1.40139572    -0.72426306
O       5.10470300     2.25987298     6.56086401     2.12476250    -0.80332477    -0.10446962
O       2.59154800     2.09190101     2.16507898     0.61129337    -1.19900844     0.10788173
O       2.12410298     4.24837599     6.69306000     0.66176466    -3.09582147    -0.09048230
O       0.07773497     0.71195200     2.19134400     0.69331185    -0.13530333     1.41125334
O       2.44476000     1.13934402     7.34461399    -0.26910693     2.77169266    -1.25343562
O       2.52450902     4.57187501     2.32526500     0.56816182     2.16588936    -0.14312025
