# total energy = -19072.90589773 eV

CRYSTAL
PRIMVEC
        5.17600016     0.00000000     0.00000000
        0.00000000     5.50899976     0.00000000
        0.00000000     0.00000000     9.26300011
PRIMCOORD
22 1
Ti      1.90463899     3.55106701     3.37205899     0.70955892    -0.01405571    -0.36111672
Ti      3.55030801     2.09116900     5.91230601     0.91005927     0.42462864    -2.29720337
Ti      4.43340699     2.24091399     1.39994302     0.21272390     0.63657478    -1.50821610
Ti      0.53878801     3.04311802     7.96393700     1.53023581    -0.25722637     0.28958063
Ti      1.83338602     0.53993299     1.29164398    -0.47544754     1.78975869    -1.79677574
Ti      3.21651602     5.11919801     8.20652699     0.14326604     0.67099595     0.28514265
Ti      0.86112300     5.49326901     6.05034999    -2.51867365     1.74929979    -2.26463519
Ti      4.44044701     5.08006398     3.26211400    -0.04657169    -1.79066140     2.90523581
O       3.63874300     3.24694900     4.24980202    -0.75030963     0.32602037     1.72448324
O       0.97346801     1.77702901     0.09099102    -0.98772641     1.36330867    -0.08954307
O       4.40036501     3.74089998     8.92153002    -1.90043212     0.09031955     1.03187407
O       3.50957999     0.90733499     0.27810598     0.43919318    -0.42587691    -1.78830036
O       1.75526602     4.73901702     9.22094099    -0.22707272    -1.27370415    -1.25122936
O       4.44012601     0.73164502     4.85555899    -1.11667500    -0.05756471     0.13934304
O       1.20513001     5.10897102     4.18070401    -0.18379898    -1.02490689     1.69013586
O       0.25697398     3.74600998     2.24843900    -0.13571110    -2.05716637     0.44568521
O       4.94588002     1.59215798     7.05761402    -0.20432539    -0.40038236     0.01197877
O       2.65698400     2.18138102     2.10194501     0.22585273     0.20525716     0.69756883
O       1.68148601     4.05476300     6.64986802     1.12777317    -2.85830004     1.42308067
O       0.07231001     0.64050302     2.10413601     0.58609038     2.50833446    -0.41905526
O       2.22787702     1.00965702     6.69713599     1.54553336     0.85971705     0.84886108
O       2.79003800     4.89103699     2.37796000     1.11645722    -0.46437071     0.28310607
