# total energy = -19909.51510977 eV

CRYSTAL
PRIMVEC
        6.57220352     0.00000000     0.00000000
        1.72183357     6.77957839     0.00000000
        0.00000000     0.00000000    11.85722708
PRIMCOORD
24 1
Ti      3.40246473     4.01757208     4.39894690    -0.27141989    -1.79627978     0.65996900
Ti      4.89157256     2.76200676     7.45828085     0.27141989     1.79627978    -0.65996900
Ti      6.36957834     2.76200911     1.52961963     0.18873575    -0.40427116    -0.26731898
Ti      1.92445898     4.01757000    10.32760825    -0.18873575     0.40427116     0.26731898
Ti      2.54154808     0.62778293     1.52966717    -0.27141989    -1.79627978    -0.65996900
Ti      5.75248924     6.15179618    10.32756071     0.27141989     1.79627978     0.65996900
Ti      1.06354220     0.62778033     7.45823331    -0.18873575     0.40427116    -0.26731898
Ti      7.23049511     6.15179871     4.39899444     0.18873575    -0.40427116     0.26731898
O       2.68643079     2.38720495     6.05065250     1.78419739     1.96392065    -0.57944639
O       5.60760643     4.39237390     5.80657525    -1.78419739    -1.96392065     0.57944639
O       1.81229014     2.38723231     0.12207683    -0.78485267     0.15446988     0.92525990
O       6.48174723     4.39234665    11.73515058     0.78485267    -0.15446988    -0.92525990
O       4.74668976     1.00258455     0.12203836    -1.78419739    -1.96392065    -0.57944639
O       3.54734753     5.77699429    11.73518905     1.78419739     1.96392065     0.57944639
O       5.62083055     1.00255724     6.05069097     0.78485267    -0.15446988     0.92525990
O       2.67320668     5.77702167     5.80653677    -0.78485267     0.15446988    -0.92525990
O       1.28610014     4.12372405     3.20293303     0.52333693     1.60015107     1.72228392
O       7.00793708     2.65585480     8.65429471    -0.52333693    -1.60015107    -1.72228392
O       4.19939900     2.65579158     2.72571858     0.59350647     1.65962585     0.88762073
O       4.09463829     4.12378733     9.13150897    -0.59350647    -1.65962585    -0.88762073
O       0.42518347     0.73393470     2.72568071     0.52333693     1.60015107    -1.72228392
O       7.86885382     6.04564421     9.13154684    -0.52333693    -1.60015107     1.72228392
O       3.23372161     0.73399792     8.65433252    -0.59350647    -1.65962585     0.88762073
O       5.06031567     6.04558092     3.20289516     0.59350647     1.65962585    -0.88762073
