# total energy = -4981.22897818 eV

CRYSTAL
PRIMVEC
        4.60180934     0.00000000     0.00000000
       -0.00001024     4.60180934     0.00000000
       -2.30094076    -2.30094588     5.87293217
PRIMCOORD
6 1
Ti     -0.00020265     3.45153130     1.46823288    -0.00189593     0.00189593     0.00000000
Ti      2.30106086    -1.15066797     4.40469890     0.00189593    -0.00189593    -0.00000000
O       0.00004597     1.15044452     0.95665260    -0.00044789    -0.00261533    -1.32847741
O       2.30081211     1.15041868     4.91627925     0.00044789     0.00261533     1.32847741
O      -0.00002599    -1.15042454     3.89311862    -0.00261533    -0.00044789    -1.32847741
O       2.30088400     3.45128768     1.97981323     0.00261533     0.00044789     1.32847741
