# total energy = -4825.47006022 eV

CRYSTAL
PRIMVEC
        5.24834453     0.00000000     0.00000000
       -0.00000649     1.74944818     0.00000000
       -2.62420567    -0.87483792     5.95382688
PRIMCOORD
6 1
Ti     -0.00022461     1.31212785     1.48845635    -0.09201442    -0.06655457   173.38743070
Ti      2.62435684    -0.43751765     4.46536965     0.09201442     0.06655457  -173.38743070
O       0.00005541     0.43734308     0.96982959     0.09222885     0.06667130  -167.43500277
O       2.62407667     0.43726707     4.98399646    -0.09222885    -0.06667130   167.43500277
O      -0.00002408    -0.43741655     3.94674288    -0.00087880     0.00105724    -0.09043370
O       2.62415606     1.31202666     2.00708317     0.00087880    -0.00105724     0.09043370
