# total energy = -39032.66024946 eV

CRYSTAL
PRIMVEC
        5.93200024     0.00000000     0.00000000
        0.00000000     9.29399984     0.00000000
        0.00000000     0.00000000     9.29399984
PRIMCOORD
46 1
Ti      4.39538598     7.21852899     6.86268898    -0.43200591    -2.27705208     0.36476126
Ti      4.44826301     6.88368700     2.45123099     1.06397945    -0.05071194    -1.61012336
Ti      4.44092999     2.12488902     7.00002302     0.98720602     0.77405943     0.25369496
Ti      4.53717500     2.59256402     2.02518197    -0.28709283    -0.56108614     1.13269606
Ti      1.54883799     6.80278501     7.09016800    -1.86793182     0.43175086     0.41570665
Ti      1.53225199     7.04860499     2.28860202    -1.54077965    -0.09273407    -1.07469941
Ti      1.56056498     2.49858003     6.82184100    -1.57502676    -0.73839590     0.50964117
Ti      1.48653298     2.05561400     2.57689900     0.00243664     1.36544629    -0.92049333
Ti      2.94139798     4.69270501     4.84172101     0.68108728     0.62675882    -1.75887381
Ti      2.94710997     4.84088702     9.14332598     0.11772417    -0.23988273     0.75090201
Ti      2.94022702     9.23008100     4.54824401    -0.86685701     0.03386041     0.68647503
Ti      2.96770698     0.11379602     9.26059002    -0.90722360    -1.08727108     1.00936380
Ti      5.91495502     4.60841099     4.75149697    -0.78874712    -0.23661588    -1.19838649
Ti      5.92344498     4.65075501     0.01118400    -0.13636802     1.31286721    -0.86618672
Ti      5.83796798     9.06445402     4.85443899     1.43243898     1.07314209    -1.23680881
Ti      5.92315399     9.27262102     8.99202098     1.09049164    -1.22691469     2.12324606
O       4.28576601     5.55367698     5.83395502     0.48612843    -0.26472037    -1.83635018
O       4.38024400     5.63630499     0.79357500     0.12345825    -1.41061416     1.51355269
O       4.41493299     0.88506800     5.47569102     0.30080118    -0.28716996     0.28833107
O       4.46333102     0.85244100     0.73052099     0.60100896     1.99464355     1.16489400
O       1.37513598     5.40836999     5.68747802     1.28345455     1.08575901     1.08937810
O       1.40705701     5.83717300     0.75666902     0.68118395    -2.08057859     0.08061388
O       1.52212698     0.75379902     5.57531901    -0.64224098     1.78480006    -0.62275150
O       1.44051700     0.69177701     0.88444802     0.38106745     1.39412978     1.14899558
O       4.37554802     8.55249800     8.17816499     0.18542366    -0.15802186     0.07845184
O       4.44365102     8.03126100     3.91498501    -0.32752241     2.46736675     0.85788925
O       4.36123701     3.76975199     8.41259703     0.24511158    -1.22309274     0.63102043
O       4.53126901     3.94325302     3.73508602    -1.16266691    -0.88527486    -1.45571724
O       1.58218701     8.11675101     8.35039499    -0.76571337     2.33395601     1.10214620
O       1.38173001     8.38388302     3.77880003     0.62632019     1.11543727    -0.95452266
O       1.42370498     3.70454402     8.38517998     0.71003894     0.83635446    -0.32080823
O       1.40347200     3.63304498     3.98732401     0.37327367    -1.16765434    -1.22640072
O       3.08374698     6.07149899     7.87017801    -0.32783300     0.51416117    -0.49013960
O       2.83380799     5.99098901     3.34239802     0.59991855     0.36420615    -0.64660132
O       2.84733800     1.46864600     7.85548202     0.26994202    -0.09240085    -0.15416263
O       3.25273100     1.63742099     3.13928397    -0.91408536    -1.03689466    -0.11216879
O       5.79342502     6.06759302     7.93787502     0.75417734     0.38051184    -0.73796550
O       0.13978302     6.21781798     3.35637698    -0.49602435    -1.35809396    -0.44100940
O       0.20680601     1.48071198     7.94546999    -1.40645180    -0.32629291    -1.00212331
O       2.78913300     7.96700502     6.06256102     0.72028119    -1.15684027    -0.10274209
O       3.16999800     7.83718101     1.37065301    -0.94136195     0.38075764     1.05083288
O       3.08394098     3.18198202     6.02393701    -0.16856724    -0.43991926     0.40252280
O       0.01094503     7.91128397     6.17381599     1.18654809    -0.64228392     0.28735739
O       5.90385098     7.91175902     1.38498302    -0.10095543    -0.49885976     0.70559556
O       5.70631202     3.13887503     6.01339501     1.33970877    -0.07567891     0.82762376
O       0.31510500     3.28056102     1.49679299    -0.58775569    -0.65491190     0.29334267
