# total energy = -19934.45989998 eV

CRYSTAL
PRIMVEC
        5.99003072     0.00000000     0.00000000
        2.16504702     5.99631594     0.00000000
        0.00000000     0.00000000    10.89397120
PRIMCOORD
24 1
Ti      3.45410298     3.55341118     4.04158563     0.23047197    -2.47766428     0.83445930
Ti      4.70097498     2.44290460     6.85238569    -0.23047197     2.47766428    -0.83445930
Ti      6.04805768     2.44290664     1.40535653    -0.94270175    -0.85659136     0.27617463
Ti      2.10702030     3.55340932     9.48861491     0.94270175     0.85659136    -0.27617463
Ti      2.37157962     0.55525337     1.40540021     0.23047197    -2.47766428    -0.83445930
Ti      5.78349835     5.44106253     9.48857124    -0.23047197     2.47766428     0.83445930
Ti      1.02449682     0.55525116     6.85234201     0.94270175     0.85659136     0.27617463
Ti      7.13058116     5.44106480     4.04162931    -0.94270175    -0.85659136    -0.27617463
O       2.65823246     2.11140471     5.55911012     1.73766992     2.10538460    -0.84360420
O       5.49684550     3.88491107     5.33486120    -1.73766992    -2.10538460     0.84360420
O       1.86152648     2.11142890     0.11215957    -0.25095879    -0.53730291     1.30042281
O       6.29355155     3.88488693    10.78181145     0.25095879     0.53730291    -1.30042281
O       4.41432212     0.88675314     0.11212422    -1.73766992    -2.10538460    -0.84360420
O       3.74075583     5.10956264    10.78184680     1.73766992     2.10538460     0.84360420
O       5.21102816     0.88672894     5.55914547     0.25095879     0.53730291     1.30042281
O       2.94404974     5.10958685     5.33482585    -0.25095879    -0.53730291    -1.30042281
O       1.53453595     3.64729917     2.94273341     0.53590346     2.10557923     2.01885743
O       6.62054200     2.34901661     7.95123792    -0.53590346    -2.10557923    -2.01885743
O       4.06078154     2.34896075     2.50428688     0.94141903     1.66977991     0.89136194
O       4.09429641     3.64735503     8.38968426    -0.94141903    -1.66977991    -0.89136194
O       0.45201258     0.64914124     2.50425207     0.53590346     2.10557923    -2.01885743
O       7.70306538     5.34717454     8.38971907    -0.53590346    -2.10557923     2.01885743
O       3.01177304     0.64919710     7.95127260    -0.94141903    -1.66977991     0.89136194
O       5.14330492     5.34711868     2.94269866     0.94141903     1.66977991    -0.89136194
