# total energy = -19074.45026473 eV

CRYSTAL
PRIMVEC
        7.60600008     0.00000000     0.00000000
        0.00000000     7.60600008     0.00000000
       -1.89786986    -1.89786986     4.85670466
PRIMCOORD
22 1
Ti      3.75568900     6.89940499     1.14150502     0.11373125    -1.55749543     2.04755507
Ti      3.78467199     2.84175798     1.15465899     0.48882680     2.33621241     0.01076547
Ti     -0.20829798     6.48566998     1.05195601     0.41187854    -0.21632422     0.57803511
Ti     -0.00991699     2.67578101     1.19544797    -0.96980402     1.27933024     1.66082321
Ti      5.59390122     2.70488623     3.58922482     2.33606252     0.40399733    -0.93077620
Ti     -1.40109980    -0.97254375     3.82560983    -0.54564254    -0.52883009    -0.84731739
Ti      2.04115323     3.06059225     3.66331381    -2.81387651    -2.75071836     0.33727230
Ti      1.65519823    -0.78533878     3.63189481    -0.12221949     0.09800560     1.50967880
O       3.81327502     4.69989002     0.73073102    -0.11113880     1.56080392     0.01498234
O       4.17222701     1.10037498     0.89248299    -0.94538136    -2.85086493    -0.36309775
O      -0.06045099     4.56014098     0.59967800    -0.07460701     0.74484243     2.19798446
O       7.30056300     0.87286703     0.67246099     0.47750417    -0.50920460     1.45514954
O       5.70822923     4.67032621     4.04583779     0.51001347     1.14730070     0.04443948
O       5.55803920     0.83097222     3.89316782     0.63517919    -0.75972810     0.46682715
O       1.89097024     4.84467323     4.22502181    -0.19371675     1.71807939    -1.83238014
O       2.22896522     0.98079722     3.99867883    -0.98962209    -0.58642000    -0.21036491
O       3.78251025     3.16006122     3.26791183     0.26505229    -0.20818384    -0.89059241
O      -0.02062976     2.87300124     3.22704580     0.74943211    -0.25277759    -0.66981505
O       5.68308003     6.54098599     2.06363199    -0.30862582    -0.07872078    -2.16260632
O       5.70550301     2.82659599     1.67742902     0.00227028     0.28022695    -0.50324349
O       1.64090901     6.53277602     1.87254000     0.98435210     0.46186414    -2.02300617
O       1.90715698     2.63723097     1.59156699     0.10033142     0.26860479     0.10968613
