# total energy = -19946.50522964 eV

CRYSTAL
PRIMVEC
        5.48938813     0.00000000     0.00000000
        2.24709072     5.39294510     0.00000000
        0.00000000     0.00000000    10.03541402
PRIMCOORD
24 1
Ti      3.32126309     3.19585437     3.72306702     1.55235682    -3.23698511     1.07498223
Ti      4.41521583     2.19709088     6.31234711    -1.55235682     3.23698511    -1.07498223
Ti      5.64971033     2.19709271     1.29459992    -3.48252864    -0.29658226     0.99181370
Ti      2.08676864     3.19585275     8.74081426     3.48252864     0.29658226    -0.99181370
Ti      2.19771784     0.49938180     1.29464015     1.55235682    -3.23698511    -1.07498223
Ti      5.53876112     4.89356361     8.74077403    -1.55235682     3.23698511     1.07498223
Ti      0.96322326     0.49937982     6.31230682     3.48252864     0.29658226     0.99181370
Ti      6.77325570     4.89356559     3.72310725    -3.48252864    -0.29658226    -0.99181370
O       2.52866483     1.89894770     5.12099497     1.02968375     1.71350565    -1.05990502
O       5.20781405     3.49399756     4.91441915    -1.02968375    -1.71350565     1.05990502
O       1.79854810     1.89896949     0.10332022     0.54103358    -0.80504818     0.77824056
O       5.93793091     3.49397585     9.93209358    -0.54103358     0.80504818    -0.77824056
O       4.08426877     0.79752488     0.10328764    -1.02968375    -1.71350565    -1.05990502
O       3.65221015     4.59542037     9.93212616     1.02968375     1.71350565     1.05990502
O       4.81438557     0.79750313     5.12102750    -0.54103358     0.80504818     0.77824056
O       2.92209326     4.59544219     4.91438657     0.54103358    -0.80504818    -0.77824056
O       1.56625015     3.28029508     2.71081571     0.44319176     1.07672724     1.00236165
O       6.17022873     2.11265018     7.32459842    -0.44319176    -1.07672724    -1.00236165
O       3.82440897     2.11260000     2.30692328     1.48783599     0.54645656    -0.29529722
O       3.91206991     3.28034526     7.72849068    -1.48783599    -0.54645656     0.29529722
O       0.44270486     0.58382234     2.30689119     0.44319176     1.07672724    -1.00236165
O       7.29377407     4.80912291     7.72852271    -0.44319176    -1.07672724     1.00236165
O       2.78852464     0.58387259     7.32463040    -1.48783599    -0.54645656    -0.29529722
O       4.94795424     4.80907267     2.71078368     1.48783599     0.54645656     0.29529722
