# total energy = -4983.83368336 eV

CRYSTAL
PRIMVEC
        3.08870174     0.00000000     0.00000000
        2.27742738     4.27017563     0.00000000
       -0.00001465    -0.00006598     5.00803834
PRIMCOORD
6 1
Ti      2.68305699     2.13505472     2.50401928     0.00000000     0.00000000     0.00000000
Ti      0.00000000     0.00000000     0.00000000     0.00000000     0.00000000     0.00000000
O       1.98818495     0.83218144     0.97599297    -3.60539528     1.87565670     2.06934003
O       3.37792906     3.43792811     4.03204564     3.60539528    -1.87565670    -2.06934003
O       0.69486583     1.30284676     3.48001322     3.60463655    -1.87577138     2.06906570
O       1.58254656     2.96726286     1.52802534    -3.60463655     1.87577138    -2.06906570
