# total energy = -78964.82524005 eV

CRYSTAL
PRIMVEC
       10.35150501     0.00002646     0.00000000
        0.00002858    11.01713167     0.00000000
        0.00000000     0.00000000     9.26345890
PRIMCOORD
94 1
Ti      7.17452407     8.68726188     3.27523144     0.01878834     0.04151639     0.00947015
Ti      7.06769471     3.31780092     3.44087954     0.01477716     0.03381953     0.04786984
Ti      1.80489920     8.77746339     3.47641545    -0.01545414    -0.07743034     0.03055526
Ti      1.83358878     3.41030191     3.49847641     0.00424952    -0.03900288    -0.07233930
Ti      8.36325814     7.68271494     5.74401286     0.01656845     0.00409988     0.03395143
Ti      8.52269395     2.19968484     5.81859573    -0.00075976     0.01963784     0.02705161
Ti      3.34728942     7.64155860     5.80698867    -0.00972109     0.04960200    -0.09723016
Ti      3.20645677     2.22231023     5.80559512    -0.09101837     0.03593992     0.03874088
Ti      9.75166189     7.68278899     1.11221970    -0.01554695     0.00365277     0.03304254
Ti      9.59264127     2.19982152     1.18681666     0.00131152     0.01992451     0.02714649
Ti      4.41663252     7.64127171     1.17536577     0.00857849     0.04943950    -0.09741116
Ti      4.55712733     2.22244731     1.17391381     0.08982975     0.03578463     0.03764765
Ti      5.95856462     8.77749504     8.10817669     0.01672349    -0.07819653     0.03020327
Ti      5.93001603     3.41049413     8.13020999    -0.00484165    -0.03994159    -0.07153403
Ti      0.58925589     8.68720544     7.90692211    -0.01721817     0.04212368     0.00950229
Ti      0.69628222     3.31778909     8.07268940    -0.01569479     0.03501047     0.04823314
Ti      7.04061380     6.05959031     1.17396990     0.04705403    -0.01610745     0.05744824
Ti      7.02777696     0.54046340     1.20947638     0.00642416    -0.01235441    -0.03098489
Ti      1.89059128     6.04254456     1.22417272     0.07065188    -0.07049659     0.01044254
Ti      1.90902479     0.86144961     1.33963741     0.00900272    -0.02389944    -0.12762524
Ti      8.47110037    10.49287852     8.07904603    -0.00024117    -0.04619143    -0.02766637
Ti      8.51461164     4.95129249     8.05936213     0.06600770     0.05647662    -0.09646551
Ti      3.50158337    10.42911920     7.93730179     0.03609959    -0.03079874     0.02702050
Ti      3.28184512     4.93701462     8.08483632     0.05267447     0.01994020    -0.01187336
Ti      5.87300197     6.04246037     5.85579519    -0.06985767    -0.07120673     0.01024456
Ti      5.85451214     0.86167846     5.97132084    -0.00964935    -0.02391590    -0.12765738
Ti      0.72320695     6.05961159     5.80570275    -0.04643748    -0.01613599     0.05823602
Ti      0.73606277     0.54062243     5.84134453    -0.00750917    -0.01414442    -0.03032257
Ti      9.64433765    10.49290705     3.44745655     0.00013395    -0.04660769    -0.02771239
Ti      9.60059332     4.95135171     3.42770678    -0.06609203     0.05774006    -0.09561319
Ti      4.26281478    10.42920404     3.30539589    -0.03657267    -0.03110650     0.02593576
Ti      4.48164079     4.93695116     3.45302065    -0.05251557     0.01943935    -0.01113828
O       6.75242136     7.47594594     4.72017104     0.05993604     0.00195610     0.02456613
O       6.84696147     1.90487609     4.69606190    -0.01740972    -0.03253347     0.07216009
O       1.61026184     7.43534779     4.75274401    -0.01821319     0.02694980     0.01583774
O       1.67303624     1.89346823     4.70065848    -0.02519168    -0.06877498    -0.02461729
O       8.60683398     9.12448267     4.54995797     0.01379603     0.05458223    -0.02089202
O       8.71634809     3.58494778     4.52800286     0.00821288    -0.01827438    -0.00338357
O       3.49499320     9.11092400     4.55272758     0.03380642     0.04170717    -0.03365215
O       3.56313057     3.55221657     4.52830655     0.07769131     0.04853036    -0.05256442
O       6.15335389     7.43535254     0.12100892     0.01859525     0.02625971     0.01646227
O       6.09041502     1.89350457     0.06893106     0.02561540    -0.06868422    -0.02449825
O       1.01112269     7.47592818     0.08846201    -0.06029393     0.00195173     0.02421286
O       0.91652982     1.90477242     0.06436514     0.01791622    -0.03270007     0.07150035
O       9.50828913     9.12451831     9.18165452    -0.01369344     0.05411866    -0.02103600
O       9.39877240     3.58497861     9.15968152    -0.00824193    -0.01887756    -0.00318020
O       4.26864496     9.11097836     9.18435583    -0.03273838     0.04204578    -0.03332022
O       4.20037008     3.55228543     9.16009838    -0.07773270     0.04867846    -0.05259965
O       8.73033315     6.35090062     0.06776001    -0.07042203    -0.10207463     0.00216281
O       8.69218864     0.83326427     0.09939317     0.03646777     0.00924106    -0.02170783
O       3.56181413     6.34870849     0.09295767     0.06630235    -0.00235642     0.02733958
O       3.31847207     0.66738170     0.07292982    -0.11825639    -0.11969390     0.03964360
O       6.85038010    10.16675464     9.19329166     0.05204403    -0.02770185    -0.04172953
O       6.81854295     4.67305110     9.20032897    -0.00665633     0.05049803     0.05028977
O       1.65533569     4.67783494     9.16465127    -0.03459446     0.02352277    -0.02386396
O       9.38485490     6.35090716     4.69954898     0.06956945    -0.10223456     0.00189310
O       9.42283223     0.83324001     4.73117510    -0.03611630     0.00945652    -0.02188575
O       4.20174669     6.34869724     4.72468942    -0.06601413    -0.00282359     0.02734986
O       4.44507784     0.66739262     4.70468892     0.11817874    -0.11945787     0.03997321
O       6.10819946     4.67788394     4.53290123     0.03428259     0.02333457    -0.02417532
O       0.91322684    10.16672772     4.56157466    -0.05163008    -0.02746839    -0.04196736
O       0.94508567     4.67302307     4.56854763     0.00663525     0.05036870     0.05012547
O       5.40332057     9.00785293     2.68435066     0.09412426    -0.05556516     0.03789396
O       5.36121334     3.36093683     2.45109486     0.11691042     0.03686398     0.05693787
O       0.15797108     8.83538633     2.51812118    -0.00330567     0.08542185    -0.00218004
O       0.20543364     3.35479372     2.49361449    -0.03399025    -0.03292042     0.01242075
O      10.10483905     7.59956506     6.76020815     0.01882948    -0.02058349    -0.06409943
O      10.18632997     2.14591546     6.76049991     0.01485687     0.03930550     0.06116502
O       4.96546007     7.64624136     6.80150211    -0.00853298     0.00541295    -0.05302234
O       4.95960747     2.18871394     6.79151130    -0.03531154     0.02377706     0.02076192
O       8.01040090     7.59955273     2.12848294    -0.01959438    -0.02098252    -0.06378292
O       7.92879797     2.14591377     2.12871956    -0.01450000     0.03990431     0.06149515
O       2.79817756     7.64621515     2.16967736     0.00848336     0.00569680    -0.05225795
O       2.80392186     2.18866079     2.15970764     0.03422885     0.02315716     0.02120544
O       7.60568577     8.83540591     7.14991791     0.00326093     0.08520922    -0.00251942
O       7.55813934     3.35481261     7.12537065     0.03388278    -0.03276949     0.01215849
O       2.36054641     9.00801296     7.31612385    -0.09559288    -0.05585312     0.03787545
O       2.40233532     3.36095701     7.08279402    -0.11631084     0.03621297     0.05602539
O       5.38725557     6.17561749     2.16776096     0.04349228    -0.04479120     0.00326505
O       5.32588376     0.57889153     2.09805409    -0.08215166     0.03515342    -0.02393209
O       0.22717468     6.08766596     2.11776208    -0.02368347     0.04325497     0.01625298
O       0.16184317     0.58434622     2.12431092    -0.01234310    -0.00019746     0.01188621
O      10.23962529    10.42262232     7.20492441     0.01517774    -0.03970736     0.02722105
O      10.15319145     4.89829601     7.11517706    -0.04409109     0.00701551     0.04200773
O       5.09727215    10.38114036     7.04087667    -0.02493174     0.03997167     0.07366265
O       4.97800466     4.88729888     7.13109232    -0.00716515     0.04888929    -0.04734200
O       7.53633480     6.08771974     6.74949046     0.02385548     0.04304234     0.01639053
O       7.60174265     0.58440477     6.75612456     0.01226468     0.00062118     0.01047416
O       2.37637850     6.17560622     6.79953711    -0.04346220    -0.04426619     0.00242738
O       2.43768008     0.57888004     6.72985296     0.08271885     0.03575712    -0.02484149
O       7.87558550    10.42264078     2.57315301    -0.01498928    -0.04021027     0.02755658
O       7.96199951     4.89825737     2.48345817     0.04371340     0.00758656     0.04199873
O       2.66674376    10.38116397     2.40934992     0.02511275     0.04035091     0.07407968
O       2.78552451     4.88720367     2.49926161     0.00745260     0.04908546    -0.04679641
