# total energy = -19930.84160309 eV

CRYSTAL
PRIMVEC
        6.13326672     0.00000000     0.00000000
        0.00003362     6.52765052     0.00000000
        0.00000000     0.00000000    10.97719880
PRIMCOORD
24 1
Ti      2.22303411     3.86827966     4.07246254     0.03930550    -0.85638079     0.62466877
Ti      3.91026622     2.65937092     6.90473657    -0.03930550     0.85638079    -0.62466877
Ti      5.28956010     2.65937316     1.41609315     0.03950553     0.85621187    -0.62436101
Ti      0.84374023     3.86827766     9.56110609    -0.03950553    -0.85621187     0.62436101
Ti      2.22301743     0.60445452     1.41613717     0.03930550    -0.85638079    -0.62466877
Ti      3.91028290     5.92319624     9.56106207    -0.03930550     0.85638079     0.62466877
Ti      0.84372355     0.60445209     6.90469255    -0.03950553    -0.85621187    -0.62436101
Ti      5.28957678     5.92319867     4.07250656     0.03950553     0.85621187     0.62436101
O       1.94122948     2.29849678     5.60158064     1.36989276     1.26065888     0.02649908
O       4.19207086     4.22915386     5.37561847    -1.36989276    -1.26065888    -0.02649908
O       1.12546342     2.29852307     0.11301642    -1.36925821     1.26068820     0.02553878
O       5.00783698     4.22912757    10.86418238     1.36925821    -1.26068820    -0.02553878
O       4.19205418     0.96532854     0.11298080    -1.36989276    -1.26065888     0.02649908
O       1.94124616     5.56232203    10.86421800     1.36989276     1.26065888    -0.02649908
O       5.00782030     0.96530225     5.60161626     1.36925821    -1.26068820     0.02553878
O       1.12547997     5.56234839     5.37558286    -1.36925821     1.26068820    -0.02553878
O       0.22285619     3.97048709     2.96521532     0.48337760    -0.28103248     0.32352949
O       5.91044414     2.55716349     8.01198379    -0.48337760     0.28103248    -0.32352949
O       3.28949446     2.55710265     2.52341913     0.48339868     0.28158604    -0.32380177
O       2.84380587     3.97054793     8.45377979    -0.48339868    -0.28158604     0.32380177
O       0.22283951     0.70666177     2.52338408     0.48337760    -0.28103248    -0.32352949
O       5.91046083     5.82098881     8.45381485    -0.48337760     0.28103248     0.32352949
O       2.84378919     0.70672261     8.01201878    -0.48339868    -0.28158604    -0.32380177
O       3.28951115     5.82092797     2.96518027     0.48339868     0.28158604     0.32380177
