# total energy = -19517.41854595 eV

CRYSTAL
PRIMVEC
        5.17600016     0.00000000     0.00000000
        0.00000000     5.50899976     0.00000000
        0.00000000     0.00000000     9.26300011
PRIMCOORD
23 1
Ti      1.84186598     3.30275498     3.48084900    -0.24423689    -1.66452869     3.22555887
Ti      3.37646000     2.19561499     5.87174902    -0.45139461     0.64571300    -2.94076538
Ti      4.32359203     2.10712301     1.42875000     1.04506126    -0.13378612    -0.44253895
Ti      0.90401202     3.36726200     7.78071002    -1.15654459     0.79522476     1.43820725
Ti      2.04426299     0.34546098     1.34861198    -2.32021655     0.06610026    -1.40304689
Ti      3.29053601     5.20823002     7.96739100    -0.07109077    -1.07053268     0.46734137
Ti      0.70853500     0.56756398     5.92110300    -0.66766637     0.00911174    -3.58210519
Ti      4.49048601     4.82826001     3.34534300     0.68638607     0.25958356     2.63299908
O       1.68096699     1.92527199     4.88204601     0.24089034     0.56871255    -0.96693826
O       3.54235601     3.56075402     4.44812199     0.39763591    -0.15639718     0.69010671
O       4.97478601     2.97267601     9.22947800     0.24377615     0.19834628     0.00323368
O       3.36024601     1.02475799     0.04991703    -0.14010023    -0.36404700    -0.14490126
O       1.87280300     4.60073300     9.22180900     0.13589648    -0.21990551    -1.45303327
O       4.32496699     0.81662601     4.79686302    -0.35446167    -0.37430854    -0.90056907
O       0.94051800     4.66443102     4.53264202    -0.01317665     0.03192000    -0.28613381
O       0.24146400     3.22272602     2.60321599    -1.36292764    -0.04062807    -0.99121951
O       5.08006498     2.13546601     6.69927900     0.33182361    -0.13740623     1.40586687
O       2.67549001     1.84987899     2.27717898    -0.34398416     1.38811880     0.52250621
O       2.61237901     3.51422399     7.09070601     0.75523844    -0.74132336     0.10251326
O       0.04628100     0.50644999     1.91153899     1.09346461     0.17363952    -0.26219143
O       5.09800298     4.76177000     7.08738299    -0.93120892     0.61613502     1.20396990
O       2.45036600     0.65435302     6.65091997     0.86716374    -0.30525305     1.94617463
O       2.62762699     4.62484999     2.45020799     2.25967219     0.45551146    -0.26503533
