# total energy = -19908.47720046 eV

CRYSTAL
PRIMVEC
        8.14145856     0.00000000     0.00000000
        0.00002865     4.66575526     0.00000000
        0.00000000     0.00000000    12.31734633
PRIMCOORD
24 1
Ti      2.95090423     2.76492239     4.56964780     0.43266489    -0.42951220     2.53428848
Ti      5.19058317     1.90083325     7.74769904    -0.43266489     0.42951220    -2.53428848
Ti      7.02149399     1.90083490     1.58897644     0.43283535     0.42942375    -2.53504027
Ti      1.11999342     2.76492087    10.72837053    -0.43283535    -0.42942375     2.53504027
Ti      2.95089003     0.43204483     1.58902581     0.43266489    -0.42951220    -2.53428848
Ti      5.19059737     4.23371095    10.72832116    -0.43266489     0.42951220     2.53428848
Ti      1.11997922     0.43204298     7.74764967    -0.43283535    -0.42942375    -2.53504027
Ti      7.02150818     4.23371273     4.56969717     0.43283535     0.42942375     2.53504027
O       2.57683321     1.64289182     6.28544775     0.92866841     1.33303804    -2.05948962
O       5.56465420     3.02286376     6.03189909    -0.92866841    -1.33303804     2.05948962
O       1.49396399     1.64291062     0.12681397    -0.92738723     1.33332883    -2.06049466
O       6.64752348     3.02284503    12.19053249     0.92738723    -1.33332883     2.06049466
O       5.56464000     0.68998613     0.12677401    -0.92866841    -1.33303804    -2.05948962
O       2.57684740     3.97576951    12.19057244     0.92866841     1.33303804     2.05948962
O       6.64750928     0.68996733     6.28548771     0.92738723    -1.33332883    -2.06049466
O       1.49397799     3.97578831     6.03185907    -0.92738723     1.33332883     2.06049466
O       0.29581543     2.83797687     3.32722265    -2.27907682     0.75289025     0.27020067
O       7.84567197     1.82777877     8.99012419     2.27907682    -0.75289025    -0.27020067
O       4.36655476     1.82773515     2.83148990    -2.28051459    -0.75286351    -0.26965843
O       3.77493264     2.83802050     9.48585669     2.28051459     0.75286351     0.26965843
O       0.29580124     0.50509918     2.83145058    -2.27907682     0.75289025    -0.27020067
O       7.84568617     4.16065647     9.48589600     2.27907682    -0.75289025     0.27020067
O       3.77491845     0.50514280     8.99016344     2.28051459     0.75286351    -0.26965843
O       4.36656896     4.16061284     3.32718333    -2.28051459    -0.75286351     0.26965843
