# total energy = -19901.69795950 eV

CRYSTAL
PRIMVEC
        8.33037348     0.00000000     0.00000000
        0.00002623     3.36297944     0.00000000
        0.00000000     0.00000000    12.89334117
PRIMCOORD
24 1
Ti      3.01937538     1.99289846     4.78333763    -0.02315485     0.03049587     2.17079889
Ti      5.31102457     1.37008087     8.11000365     0.02315485    -0.03049587    -2.17079889
Ti      7.18441994     1.37008201     1.66328150    -0.02177854    -0.03070541    -2.17121155
Ti      1.14598000     1.99289749    11.23005991     0.02177854     0.03070541     2.17121155
Ti      3.01936238     0.31140880     1.66333319    -0.02315485     0.03049587    -2.17079889
Ti      5.31103756     3.05157065    11.23000822     0.02315485    -0.03049587     2.17079889
Ti      1.14596701     0.31140759     8.10995196     0.02177854     0.03070541    -2.17121155
Ti      7.18443294     3.05157185     4.78338932    -0.02177854    -0.03070541     2.17121155
O       2.63662515     1.18416221     6.57937329     2.68043055     0.41667956    -1.38935910
O       5.69377485     2.17881712     6.31396799    -2.68043055    -0.41667956     1.38935910
O       1.52862895     1.18417575     0.13274418    -2.67980963     0.41643685    -1.38888242
O       6.80177111     2.17880357    12.76059676     2.67980963    -0.41643685     1.38888242
O       5.69376186     0.49732740     0.13270236    -2.68043055    -0.41667956    -1.38935910
O       2.63663809     2.86565193    12.76063858     2.68043055     0.41667956     1.38935910
O       6.80175811     0.49731385     6.57941517     2.67980963    -0.41643685    -1.38888242
O       1.52864177     2.86566553     6.31392611    -2.67980963     0.41643685     1.38888242
O       0.30267771     2.04555472     3.48281309    -1.25607126     0.35542301     0.57749929
O       8.02772223     1.31742460     9.41052819     1.25607126    -0.35542301    -0.57749929
O       4.46787542     1.31739334     2.96389849    -1.25736504    -0.35524174    -0.57684058
O       3.86252458     2.04558604     9.92944256     1.25736504     0.35524174     0.57684058
O       0.30266471     0.36406500     2.96385731    -1.25607126     0.35542301    -0.57749929
O       8.02773523     2.99891432     9.92948374     1.25607126    -0.35542301     0.57749929
O       3.86251158     0.36409626     9.41056925     1.25736504     0.35524174    -0.57684058
O       4.46788842     2.99888306     3.48277198    -1.25736504    -0.35524174     0.57684058
