# total energy = -19074.36294975 eV

CRYSTAL
PRIMVEC
        7.60600008     0.00000000     0.00000000
        0.00000000     7.60600008     0.00000000
       -1.89786986    -1.89786986     4.85670466
PRIMCOORD
22 1
Ti      4.03081598     6.57806999     1.16836500    -0.12222258     0.13287055    -0.14543476
Ti      3.59696901     2.72334002     1.16989199     0.94271075     0.05001157    -0.33199896
Ti      0.19329099     6.70161198     1.05657202    -0.64353296     1.51038380     0.88617706
Ti     -0.15159198     2.94442599     1.18471102    -1.34203742    -0.97498839    -0.29071937
Ti      5.58745320     2.78953025     3.62892682    -0.92759163     0.07404111    -1.21377377
Ti     -1.34100479    -0.74801078     3.70409179    -0.34381498    -1.52981415     2.20590654
Ti      1.79573723     2.85253520     3.76160880     0.86798778    -1.64812839     0.25587834
Ti      1.52175422    -1.08580075     3.70409983     1.74366856     1.32051727    -0.37702979
O       3.74967702     4.70789102     0.92792601    -0.46705469    -0.08545862    -1.05876782
O       4.01253201     0.77199801     0.67174803    -1.23794627     0.99537699     1.20678705
O       7.24733401     4.92251399     0.72785299     0.37910467    -1.35957337    -0.71098176
O      -0.28114801     0.92923800     0.85644502     0.85289771     0.98262688     0.11765372
O      -1.42458977     4.96426221     4.13388479     0.21037494    -0.65937251    -1.91087312
O       5.39250621     0.88159723     3.94181181     0.79831729     2.27480673     0.75775992
O       2.36678123     4.60500325     4.09926183    -1.29420279     1.35032614     0.25992063
O       2.05692023     0.87360322     4.03005079    -1.66969815    -0.68927008     0.22775920
O       3.62218425     2.72691821     3.17505281     0.46996801     0.14391421    -0.59085078
O       0.06167820     3.12659520     3.10410379    -1.22797475    -0.86308777     0.79152983
O       5.72412598     6.74847100     2.00174498    -0.23710157    -0.84853044    -1.24993712
O       5.46601998     2.88722299     1.64258100     1.48757631    -0.02979678     0.90025514
O       1.98714403     6.62685903     1.83616198     0.16707292    -0.08971456     0.09764539
O       1.65698499     2.82079103     1.23660902     1.59349860    -0.05714047     0.17309470
