# total energy = -4983.71420656 eV

CRYSTAL
PRIMVEC
        3.98739613     0.00000000     0.00000000
        0.00000000     2.67756509     0.00000000
        0.00000000    -0.00008581     5.31262953
PRIMCOORD
6 1
Ti      1.99369807     1.33873959     2.65631467     0.00000000     0.00000000     0.00000000
Ti      0.00000000     0.00000000     0.00000000     0.00000000     0.00000000     0.00000000
O       1.99369807     0.52180127     1.03535323     0.00000000    -1.39015306     0.08409207
O       1.99369807     2.15567795     4.27727610     0.00000000     1.39015306    -0.08409207
O       0.00000000     0.81690429     3.69166891     0.00000000     1.38986098     0.08368327
O       0.00000000     1.86057488     1.62096037     0.00000000    -1.38986098    -0.08368327
