# total energy = -19948.83678954 eV

CRYSTAL
PRIMVEC
        5.51713356     0.00000000     0.00000000
        1.99412225     5.52292258     0.00000000
        0.00000000     0.00000000    10.03392084
PRIMCOORD
24 1
Ti      3.18141064     3.27287872     3.72251308     1.10668034    -2.79012079     1.05254395
Ti      4.32984537     2.25004371     6.31140787    -1.10668034     2.79012079    -1.05254395
Ti      5.57057945     2.25004559     1.29440733    -2.51455962    -0.49673732     0.77497860
Ti      1.94067659     3.27287700     8.73951373     2.51455962     0.49673732    -0.77497860
Ti      2.18434965     0.51141757     1.29444756     1.10668034    -2.79012079    -1.05254395
Ti      5.32690638     5.01150496     8.73947351    -1.10668034     2.79012079     1.05254395
Ti      0.94361550     0.51141554     6.31136764     2.51455962     0.49673732     0.77497860
Ti      6.56764055     5.01150705     3.72255331    -2.51455962    -0.49673732    -0.77497860
O       2.44837200     1.94471486     5.12023301     1.14545414     1.72557339    -0.93892583
O       5.06288401     3.57820757     4.91368795    -1.14545414    -1.72557339     0.93892583
O       1.71456386     1.94473714     0.10330487     0.20732998    -0.64214534     0.87589367
O       5.79669222     3.57818533     9.93061581    -0.20732998     0.64214534    -0.87589367
O       4.06582301     0.81674631     0.10327231    -1.14545414    -1.72557339    -0.93892583
O       3.44543301     4.70617612     9.93064837     1.14545414     1.72557339     0.93892583
O       4.79963120     0.81672402     5.12026557    -0.20732998     0.64214534     0.87589367
O       2.71162476     4.70619841     4.91365539     0.20732998    -0.64214534    -0.87589367
O       1.41338838     3.35935450     2.71041235     0.36081924     1.15983844     1.05789904
O       6.09786763     2.16356793     7.32350861    -0.36081924    -1.15983844    -1.05789904
O       3.74019353     2.16351648     2.30658002     1.31096125     0.71349682    -0.10722661
O       3.77106249     3.35940595     7.72734077    -1.31096125    -0.71349682     0.10722661
O       0.41632737     0.59789325     2.30654796     0.36081924     1.15983844    -1.05789904
O       7.09492864     4.92502918     7.72737283    -0.36081924    -1.15983844     1.05789904
O       2.77400148     0.59794469     7.32354056    -1.31096125    -0.71349682    -0.10722661
O       4.73725453     4.92497773     2.71038034     1.31096125     0.71349682     0.10722661
