# total energy = -19888.24495928 eV

CRYSTAL
PRIMVEC
        9.08085758     0.00000000     0.00000000
        0.00002859     3.66595056     0.00000000
        0.00000000     0.00000000    14.05490344
PRIMCOORD
24 1
Ti      3.29139118     2.17243886     5.21426895     0.20091353    -0.14908213     2.43100234
Ti      5.78949525     1.49351157     8.84063461    -0.20091353     0.14908213    -2.43100234
Ti      7.83166498     1.49351282     1.81312668     0.20038054     0.14920169    -2.43167520
Ti      1.24922144     2.17243780    12.24177702    -0.20038054    -0.14920169     2.43167520
Ti      3.29137701     0.33946364     1.81318302     0.20091353    -0.14908213    -2.43100234
Ti      5.78950942     3.32648692    12.24172067    -0.20091353     0.14908213     2.43100234
Ti      1.24920728     0.33946233     8.84057827    -0.20038054    -0.14920169    -2.43167520
Ti      7.83167915     3.32648823     5.21432530     0.20038054     0.14920169     2.43167520
O       2.87415895     1.29084349     7.17210962     1.25133838     0.74546413    -2.25088132
O       6.20672754     2.37510695     6.88279394    -1.25133838    -0.74546413     2.25088132
O       1.66634327     1.29085825     0.14470311    -1.25181557     0.74567162    -2.25207792
O       7.41454328     2.37509218    13.91020007     1.25181557    -0.74567162     2.25207792
O       6.20671337     0.54213167     0.14465752    -1.25133838    -0.74546413    -2.25088132
O       2.87417305     3.12381877    13.91024566     1.25133838     0.74546413     2.25088132
O       7.41452911     0.54211690     7.17215528     1.25181557    -0.74567162    -2.25207792
O       1.66635725     3.12383360     6.88274829    -1.25181557     0.74567162     2.25207792
O       0.32994597     2.22983893     3.79658004    -1.79375187     0.54320385     0.15148534
O       8.75094045     1.43611150    10.25832352     1.79375187    -0.54320385    -0.15148534
O       4.87038672     1.43607743     3.23091637    -1.79273345    -0.54315809    -0.15175993
O       4.21049977     2.22987307    10.82398694     1.79273345     0.54315809     0.15175993
O       0.32993181     0.39686365     3.23087149    -1.79375187     0.54320385    -0.15148534
O       8.75095462     3.26908678    10.82403182     1.79375187    -0.54320385     0.15148534
O       4.21048560     0.39689773    10.25836828     1.79273345     0.54315809    -0.15175993
O       4.87040089     3.26905271     3.79653522    -1.79273345    -0.54315809     0.15175993
