# total energy = -19517.85297153 eV

CRYSTAL
PRIMVEC
        5.17600016     0.00000000     0.00000000
        0.00000000     5.50899976     0.00000000
        0.00000000     0.00000000     9.26300011
PRIMCOORD
23 1
Ti      1.83169800     3.19940401     3.50427499    -0.07035775     0.35341883     1.28904773
Ti      3.36881000     2.19312902     5.82449302     0.48003285     0.21770156    -2.03160908
Ti      4.40432601     2.05304199     1.45145599    -0.34113024     0.66182405    -1.25305227
Ti      0.89798802     3.37620600     7.74329602    -0.69612695     0.36923086     1.68130155
Ti      1.93091302     0.27232398     1.41333501     2.48547041     0.35474192    -2.35605774
Ti      3.28792600     5.13827601     7.89371502    -1.11388998     1.25671404     1.30499680
Ti      0.67959498     0.55053500     5.91829302     0.07702154    -0.66291266    -2.48385215
Ti      4.47728198     4.95474300     3.34311702     0.78473054    -0.06726034     3.20646739
O       1.65026503     1.87730598     4.76303801    -0.21587736     0.31291057    -0.21529217
O       3.51405201     3.54099100     4.53845302    -0.17457051     0.10247624    -0.63122123
O       0.00255402     2.97713697     0.06038198    -0.02707373    -0.72743375    -0.37058583
O       3.51869798     0.95774102     0.17529399    -0.97380234    -1.28859727    -0.87469502
O       1.89494399     4.58055103     9.02574502     0.22651607     0.59231734     1.10900976
O       4.29233898     0.78611799     4.75201499    -0.76742933     0.56518551    -0.11942264
O       0.89066400     4.75811402     4.49470599     1.03097495    -1.02369976     0.28381493
O       0.08876901     3.43744001     2.54995102     1.10625071    -1.31871184     0.06352530
O       5.04588701     2.05967301     6.81313799    -0.28767981     0.50092693     0.12145562
O       2.61198202     1.98270402     2.20115399    -0.34917111     0.17058453     0.01266397
O       2.63912802     3.53489398     6.91977800    -0.30316197     0.16693022     1.16949756
O       0.21678598     0.50912302     1.99444000    -0.32848632     0.89848622    -0.10105365
O       5.03434698     4.87944600     7.29267101     0.63571243    -0.33274587    -0.42576841
O       2.37735197     0.83288102     6.79420398     0.23154875    -0.63442148     1.20388582
O       2.87737098     4.67318001     2.45049702    -1.40950113    -0.46766610    -0.58305622
