# total energy = -19957.97642646 eV

CRYSTAL
PRIMVEC
        5.44133032     0.00000000     0.00000000
        0.57770762     5.76233404     0.00000000
        0.00000000     0.00000000     9.75100927
PRIMCOORD
24 1
Ti      2.31456959     3.41475385     3.61755498     0.27754760    -0.96080001     0.61515414
Ti      3.70446852     2.34758024     6.13345463    -0.27754760     0.96080001    -0.61515414
Ti      4.92815488     2.34758219     1.25791087    -0.37347756    -0.10413203    -0.01691015
Ti      1.09088324     3.41475217     8.49309890     0.37347756     0.10413203     0.01691015
Ti      2.02571589     0.53358688     1.25794999     0.27754760    -0.96080001    -0.61515414
Ti      3.99332223     5.22874743     8.49305978    -0.27754760     0.96080001     0.61515414
Ti      0.80202947     0.53358476     6.13341556     0.37347756     0.10413203    -0.01691015
Ti      5.21700859     5.22874950     3.61759410    -0.37347756    -0.10413203     0.01691015
O       1.92563614     2.02901579     4.97586552     0.85441595     0.96577458    -0.27444171
O       4.09340197     3.73331835     4.77514409    -0.85441595    -0.96577458     0.27444171
O       1.20190461     2.02903909     0.10039211    -0.47105636     0.23756771     0.34936471
O       4.81713356     3.73329510     9.65061727     0.47105636    -0.23756771    -0.34936471
O       3.80454826     0.85215116     0.10036049    -0.85441595    -0.96577458    -0.27444171
O       2.21448985     4.91018298     9.65064889     0.85441595     0.96577458     0.27444171
O       4.52827985     0.85212791     4.97589719     0.47105636    -0.23756771     0.34936471
O       1.49075820     4.91020623     4.77511247    -0.47105636     0.23756771    -0.34936471
O       0.54909062     3.50497834     2.63399094     0.10630230     0.22016982     0.33964362
O       5.46994744     2.25735580     7.11701867    -0.10630230    -0.22016982    -0.33964362
O       3.14467989     2.25730214     2.24154487     0.48016809     0.40603288    -0.07285326
O       2.87435822     3.50503195     7.50946462    -0.48016809    -0.40603288     0.07285326
O       0.26023691     0.62381115     2.24151370     0.10630230     0.22016982    -0.33964362
O       5.75880114     5.13852294     7.50949574    -0.10630230    -0.22016982     0.33964362
O       2.58550451     0.62386481     7.11704978    -0.48016809    -0.40603288    -0.07285326
O       3.43353360     5.13846933     2.63395982     0.48016809     0.40603288     0.07285326
