# total energy = -19958.35908359 eV

CRYSTAL
PRIMVEC
        5.25358546     0.00000000     0.00000000
        1.10723603     5.48067718     0.00000000
        0.00000000     0.00000000     9.45059937
PRIMCOORD
24 1
Ti      2.56031901     3.24784423     3.50610508     0.89257011    -1.45920083     0.80680861
Ti      3.80050223     2.23283309     5.94449466    -0.89257011     1.45920083    -0.80680861
Ti      4.98196727     2.23283506     1.21915703    -1.54921313    -0.47043261     0.66949623
Ti      1.37885399     3.24784247     8.23144282     1.54921313     0.47043261    -0.66949623
Ti      2.00670112     0.50750584     1.21919492     0.89238473    -1.45847501    -0.80423494
Ti      4.35412013     4.97317164     8.23140493    -0.89238473     1.45847501     0.80423494
Ti      0.82523601     0.50750372     5.94445677     1.54966873     0.46880947     0.66490244
Ti      5.53558525     4.97317376     3.50614298    -1.54966873    -0.46880947    -0.66490244
O       2.05266950     1.92983963     4.82256867     0.47388406     0.85921414    -0.59105518
O       4.30815174     3.55083769     4.62803108    -0.47388406    -0.85921414     0.59105518
O       1.35391153     1.92986170     0.09729923     0.13711724    -0.38710801     0.45971624
O       5.00690977     3.55081566     9.35330025    -0.13711724     0.38710801    -0.45971624
O       3.75453383     0.81049914     0.09726855    -0.47365394    -0.85889378    -0.59084975
O       2.60628741     4.67017818     9.35333093     0.47365394     0.85889378     0.59084975
O       4.45329186     0.81047711     4.82259934    -0.13754944     0.38669252     0.45967151
O       1.90752933     4.67020026     4.62800040     0.13754944    -0.38669252    -0.45967151
O       0.86435857     3.33365848     2.55284276    -0.08777004     0.21869246     0.06209525
O       5.49646267     2.14701883     6.89775699     0.08777004    -0.21869246    -0.06209525
O       3.25141993     2.14696764     2.17248718     0.82820920     0.03023618    -0.44238880
O       3.10940131     3.33370967     7.27811241    -0.82820920    -0.03023618     0.44238880
O       0.31074067     0.59331993     2.17245698    -0.08797110     0.21882950    -0.06197955
O       6.05008057     4.88735744     7.27814260     0.08797110    -0.21882950     0.06197955
O       2.55578340     0.59337107     6.89778714    -0.82832413    -0.02996596    -0.44199388
O       3.80503784     4.88730625     2.55281256     0.82832413     0.02996596     0.44199388
