# total energy = -19960.66440626 eV

CRYSTAL
PRIMVEC
        5.93400000     0.00000000     0.00000000
        0.00000000     9.29699974     0.00000000
        0.00000000     0.00000000     4.64899994
PRIMCOORD
24 1
Ti      4.39435001     7.02505999     2.26959101     1.13071040    -1.48451232    -0.34494036
Ti      4.48155800     2.26977902     2.38459202    -0.69009103     1.57869187    -0.46128462
Ti      1.49605902     7.03243000     2.39685300    -1.34939643    -1.55043852    -0.25988155
Ti      1.43844701     2.33793700     2.35334500     0.97068076     1.39609565    -0.82755691
Ti      2.95625199     4.65099198     4.64104800     0.29073274     0.07482787     0.91942092
Ti      2.97164898     9.26956598     4.63062400    -0.05141257     0.31815742     0.10883947
Ti      0.01106399     4.69759302     4.59143102    -0.21616429     0.44656813     0.44489537
Ti      0.01434002     0.02196498     0.04659501     0.07006927    -0.34602973     0.52173410
O       4.45664301     5.62069601     0.84528102     0.29498869    -0.51683872    -0.57931938
O       4.51562701     0.91620701     0.85992600    -1.47161669    -0.56945945    -0.10802700
O       1.52579798     5.53866401     0.92517001    -0.25519777     0.11834664    -0.63228258
O       1.49600499     0.91814899     0.91830203     0.36193047    -0.64833887    -0.72582166
O       4.48357898     8.27973200     3.60853201    -0.90303784     1.99833077     2.24917745
O       4.47604000     3.65462202     3.77570201     0.26019419     0.17071720    -0.05195250
O       1.34090599     8.31103701     3.84676501     1.99091313     0.06372970    -0.64334990
O       1.55090702     3.75422599     3.79667198    -0.87920576    -0.78347250    -0.83218593
O       2.98789901     6.02554798     3.19840900    -0.28560004     0.53581090    -0.21988957
O       2.99081599     1.46138500     3.15933699    -0.32171814    -1.84171453     1.47839618
O       0.01563999     5.98290402     3.05437198    -0.03057994    -0.26318285     1.24422027
O       0.04949300     1.32803699     3.25685700    -0.32723702     0.61238686    -0.63700930
O       2.89170501     7.87557901     1.36617802     0.45804503     0.74494271    -0.35265033
O       2.92795101     3.17003499     1.40747300     0.50927170     0.23884683     0.17521612
O       5.93023300     7.87941602     1.47789601     0.28806779     0.70915654    -0.84371321
O       0.00019998     3.31087001     1.46200498     0.15565310    -1.00262108     0.37796465
