# total energy = -19073.79814526 eV

CRYSTAL
PRIMVEC
        5.93400000     0.00000000     0.00000000
        0.00000000     9.29699974     0.00000000
        0.00000000     0.00000000     4.64899994
PRIMCOORD
22 1
Ti      4.39458401     6.87392098     2.38198598    -0.79617273     0.32663281    -0.69591149
Ti      4.42207800     2.47328101     2.05175397    -0.24030130    -0.14710495     0.37152892
Ti      1.54399898     7.18946001     2.58701697     0.56779261     0.03493153     0.47601062
Ti      1.59202103     2.21568398     2.19690602    -0.09496270     1.03713198     0.49221371
Ti      3.00164201     4.51656598     4.43794099    -0.17309444    -0.17398096    -0.13511332
Ti      3.01182301     0.12786102     4.62962301     0.58323183    -0.39073712    -0.95596325
Ti      5.84645900     4.65071898     4.41201400     0.53200721    -0.28424019     0.78572813
Ti      5.87094599     9.14445599     0.40786998     0.32483946     0.06702817    -0.55021731
O       4.25550099     5.44055598     0.85350200     0.90886294     0.35694150     1.32368179
O       4.40346498     0.71304200     1.21356002     0.29527614     0.94472392    -0.81637981
O       1.68260199     0.56137499     1.21195799    -2.22058652     2.00477524     0.09152514
O       4.46975898     8.36893498     3.92751000     0.02250925     0.93183858    -0.29791640
O       4.51400699     3.89327202     3.40170498    -0.51605273    -0.62213263    -0.12107201
O       1.36741597     8.44650199     3.83518000     0.63264382     1.13102870     0.09734560
O       1.51128699     3.84676702     3.37104101    -0.89821934     0.25274622     0.90318542
O       2.97265299     6.17313600     3.45451999    -0.61218837    -0.08820970    -1.16394475
O       3.08420101     1.69277098     3.29984699    -0.37583346    -1.41558385     1.02080932
O       5.82629000     6.28609502     3.47156400     1.35416120    -1.46128985     0.06809441
O       2.98797299     7.95610698     1.57055902     0.02032818    -1.76950867     0.29016453
O       2.87677999     3.04895098     1.03068001     0.05639100     0.08272373     0.25465141
O       0.07937902     7.73367299     1.48466202    -0.52581599    -0.97207790    -0.03568924
O       5.90438899     3.23228698     1.32265800     1.15518371     0.15436369    -1.40273193
