# total energy = -4990.00052668 eV

CRYSTAL
PRIMVEC
        3.07065112     0.00000000     0.00000000
        0.00000000     4.81124995     0.00000000
        0.00000000    -0.00006244     4.81124995
PRIMCOORD
6 1
Ti      1.53532550     2.40559370     2.40562492     0.00000000     0.00000000     0.00000000
Ti      0.00000000     0.00000000     0.00000000     0.00000000     0.00000000     0.00000000
O       1.53532550     0.93762957     0.93764174     0.00000000    -0.33399414    -0.33399414
O       1.53532550     3.87355783     3.87360810     0.00000000     0.33399414     0.33399414
O       0.00000000     1.46793882     3.34326763     0.00000000     0.33375734    -0.33375734
O       0.00000000     3.34324858     1.46798220    -0.00000000    -0.33375734     0.33375734
