# total energy = -19067.95843149 eV

CRYSTAL
PRIMVEC
        5.93400000     0.00000000     0.00000000
        0.00000000     9.29699974     0.00000000
        0.00000000     0.00000000     4.64899994
PRIMCOORD
22 1
Ti      4.32860799     6.51411601     2.44308701    -2.72648982     0.92206247    -1.16986574
Ti      4.55398601     2.51894298     1.80169799     2.74602250    -0.53095691     4.55342307
Ti      1.36779201     7.34888900     2.70366801     1.58347798    -0.73907930     0.25923697
Ti      1.61864002     2.39414197     2.11262301    -0.36296688     5.40258754     2.72323403
Ti      3.02597601     4.31682898     4.54691700    -0.16129873     3.95497262    -4.50603120
Ti      3.06336598     0.13361302     4.30657099    -0.11609384     1.34091873     0.91126769
Ti      5.91357900     4.46577301     4.04951700     1.77224330     0.57539305     0.95710328
Ti      5.91044098     9.25540303     0.53018798    -0.18316880    -0.27818035     1.33720580
O       4.07358001     5.26197299     0.99057499     1.77089064     2.54879902     2.08599308
O       4.28757702     0.89074798     1.26114898     0.76650810    -2.25754151    -2.60686175
O       1.59798200     0.90300198     1.51755399    -1.46673545    -6.87590631    -4.35959268
O       4.58561700     8.49248199     4.19684000    -1.04313216     0.47959268    -2.01811798
O       4.48135500     3.49391200     3.59252201    -0.06904906     1.19328387    -1.13518540
O       1.39299402     8.26244600     4.26955297     0.95705520     2.37733928    -0.36217447
O       1.67824601     4.06883001     3.23177098    -1.76417800     0.62647034     0.68195863
O       2.89332302     6.29945002     3.69242898    -0.10604699    -1.87865718    -0.45548009
O       3.12438298     1.79627101     3.15248398    -0.92258029    -2.88020482     2.88739877
O       5.76966798     6.41152902     3.61145301     1.18509054    -3.57970249     0.56857345
O       2.96585798     7.67065798     1.83753800    -0.71436534     1.54370299    -0.92980844
O       3.12063402     3.15571800     1.13914002    -4.27460612    -1.35965822     0.57224447
O       5.70854298     7.85914599     1.71485899     0.95277020    -0.14141304     0.21034460
O       5.89424599     3.55803701     1.06863800     2.17665252    -0.44382219    -0.20486583
