# total energy = -19962.24248914 eV

CRYSTAL
PRIMVEC
        7.60600008     0.00000000     0.00000000
        0.00000000     7.60600008     0.00000000
       -1.89786986    -1.89786986     4.85670466
PRIMCOORD
24 1
Ti      3.80714001     6.61446702     1.20453501    -0.31127972     0.22233211     0.49616447
Ti      3.78977998     2.84756300     1.21633301     0.31016180    -0.01585883    -0.05297606
Ti     -0.00688999     6.66558797     1.22303102     0.34691111     0.22454635    -0.53461302
Ti     -0.01852702     2.87743299     1.20570200    -0.13972382    -0.45106474     0.11903621
Ti      5.70083223     2.85837224     3.65413782     0.26257504     0.11403412    -0.09406410
Ti      5.72123122    -0.94719775     3.63117883    -0.21952781    -0.19838614     0.32976390
Ti      1.90954923     2.85180325     3.63969383    -0.24341157    -0.19612408    -0.30515715
Ti      1.89590424    -0.96991279     3.67473483     0.12158880     0.19899292    -0.87438366
O       3.74774499     4.76780098     0.75313602     0.25971288    -0.19771971     0.49433976
O       3.77357498     0.93337199     0.72605003     0.08081314    -0.11364100     0.90259073
O       0.00998102     4.76580699     0.79402401    -0.00643187    -0.54024940    -0.20579374
O      -0.01585600     0.96173901     0.82086102     0.19208745    -0.12563469    -0.59544997
O       5.71193125     4.71993425     3.98828182     0.06428429     0.68984035     0.60884954
O       5.71505821     0.91533122     4.00835384    -0.12938002     0.35502706     0.63311973
O       1.88404024     4.72867425     4.04837482    -0.02151654     0.18246226    -0.00792569
O       1.86871723     0.94034221     4.11198479     0.23422501     0.24162362    -0.56296793
O       3.82299823     2.90493021     3.21728581    -0.38023545    -0.41523409     0.06714670
O       3.82015925    -0.97403476     3.23688982    -0.57086019     0.02060123    -0.55404028
O      -0.05307875     2.77773325     3.23083079     1.35338344     0.23521952    -0.42342665
O      -0.01156575    -0.96372380     3.18107479     0.32638316    -0.04449193     0.46475844
O       5.73030402     6.65217799     1.60077198    -1.12671130    -0.02978933     0.10471901
O       5.74055100     2.87088099     1.60441801    -0.72961276     0.02163558    -0.10129225
O       1.85427598     6.66489301     1.61588300     1.22724944     0.00165708     0.20581354
O       1.95623102     2.89190800     1.66305201    -0.90068425    -0.17977854    -0.11421127
