# total energy = -19949.13830650 eV

CRYSTAL
PRIMVEC
        5.68427014     0.00000000     0.00000000
        0.00002401     4.47157832     0.00000000
        0.00000000     0.00000000     9.05023372
PRIMCOORD
24 1
Ti      2.06028878     2.64985321     3.35757216    -0.34204144     1.66049129    -2.96337490
Ti      3.62400543     1.82172526     5.69266161     0.34204144    -1.66049129     2.96337490
Ti      4.90232567     1.82172682     1.16750857    -0.33968528    -1.66035605     2.96475172
Ti      0.78196853     2.64985185     7.88272531     0.33968528     1.66035605    -2.96475172
Ti      2.06027687     0.41406415     1.16754485    -0.34204144     1.66049129     2.96337490
Ti      3.62401733     4.05751447     7.88268902     0.34204144    -1.66049129    -2.96337490
Ti      0.78195662     0.41406244     5.69262533     0.33968528     1.66035605     2.96475172
Ti      4.90233758     4.05751618     3.35760845    -0.33968528    -1.66035605    -2.96475172
O       1.79911588     1.57451877     4.61826500     0.90217498    -1.68954065     2.06065150
O       3.88517838     2.89705970     4.43196878    -0.90217498     1.68954065    -2.06065150
O       1.04306939     1.57453681     0.09317725    -0.90202791    -1.69055366     2.06119555
O       4.64122491     2.89704171     8.95705627     0.90202791     1.69055366    -2.06119555
O       3.88516647     0.66127049     0.09314788    -0.90217498     1.68954065     2.06065150
O       1.79912778     3.81030798     8.95708564     0.90217498    -1.68954065    -2.06065150
O       4.64121300     0.66125250     4.61829436     0.90202791     1.69055366     2.06119555
O       1.04308120     3.81032602     4.43193941    -0.90202791    -1.69055366    -2.06119555
O       0.20653730     2.71986741     2.44469391     1.29526183    -0.54937913     0.84949331
O       5.47775695     1.75171106     6.60553986    -1.29526183     0.54937913    -0.84949331
O       3.04867849     1.75166936     2.08045175     1.29572746     0.54952774    -0.84951851
O       2.63561576     2.71990916     6.96978187    -1.29572746    -0.54952774     0.84951851
O       0.20652539     0.48407825     2.08042285     1.29526183    -0.54937913    -0.84949331
O       5.47776886     3.98750027     6.96981077    -1.29526183     0.54937913     0.84949331
O       2.63560385     0.48411995     6.60556872    -1.29572746    -0.54952774    -0.84951851
O       3.04869040     3.98745851     2.44466501     1.29572746     0.54952774     0.84951851
