# total energy = -19917.79558305 eV

CRYSTAL
PRIMVEC
        6.39793081     0.00000000     0.00000000
        1.34841616     6.67448806     0.00000000
        0.00000000     0.00000000    11.50914577
PRIMCOORD
24 1
Ti      3.11801226     3.95529544     4.26981114    -0.19436056    -1.71535351     0.71868428
Ti      4.62833440     2.71919277     7.23933509     0.19436056     1.71535351    -0.71868428
Ti      6.06714826     2.71919517     1.48471599     0.13442375    -0.16004146    -0.33431990
Ti      1.67919842     3.95529331    10.02443037    -0.13442375     0.16004146     0.33431990
Ti      2.44380434     0.61805166     1.48476214    -0.19436056    -1.71535351    -0.71868428
Ti      5.30254234     6.05643675    10.02438422     0.19436056     1.71535351     0.71868428
Ti      1.00499039     0.61804908     7.23928894    -0.13442375     0.16004146    -0.33431990
Ti      6.74135629     6.05643933     4.26985729     0.13442375    -0.16004146     0.33431990
O       2.49978563     2.35020074     5.87302917     1.75638036     1.90697661    -0.50541942
O       5.24656102     4.32428748     5.63611706    -1.75638036    -1.90697661     0.50541942
O       1.64882295     2.35022762     0.11849312    -0.91757615     0.40431178     0.73983624
O       6.09752377     4.32426066    11.39065278     0.91757615    -0.40431178    -0.73983624
O       4.57235308     0.98704350     0.11845576    -1.75638036    -1.90697661    -0.50541942
O       3.17399358     5.68744472    11.39069014     1.75638036     1.90697661     0.50541942
O       5.42331583     0.98701668     5.87306653     0.91757615    -0.40431178     0.73983624
O       2.32303077     5.68747161     5.63607970    -0.91757615     0.40431178    -0.73983624
O       1.05263470     4.05980191     3.10890751     0.49114285     1.21572858     1.43024351
O       6.69371196     2.61468630     8.40023871    -0.49114285    -1.21572858    -1.43024351
O       3.95965001     2.61462396     2.64570221     0.61618258     1.43777325     0.62490351
O       3.78669665     4.05986426     8.86344382    -0.61618258    -1.43777325    -0.62490351
O       0.37842676     0.72255794     2.64566544     0.49114285     1.21572858    -1.43024351
O       7.36791991     5.95193034     8.86348060    -0.49114285    -1.21572858     1.43024351
O       3.11248870     0.72262021     8.40027542    -0.61618258    -1.43777325     0.62490351
O       4.63385796     5.95186800     3.10887074     0.61618258     1.43777325    -0.62490351
