# total energy = -19957.17430335 eV

CRYSTAL
PRIMVEC
        5.93400000     0.00000000     0.00000000
        0.00000000     9.29699974     0.00000000
        0.00000000     0.00000000     4.64899994
PRIMCOORD
24 1
Ti      4.45441300     7.02155498     2.19947999    -0.95604861    -1.14165070     0.17895502
Ti      4.46332800     2.13199201     2.48017699    -3.26177159     4.38630208    -0.10128813
Ti      1.44814699     6.98226500     2.45565899     0.68403428    -0.31720817     0.98140870
Ti      1.46485899     2.33276202     2.08432198     1.31827681     2.75549702     0.50620618
Ti      2.90323102     4.47868001     0.07395998     0.75703564     2.47867369    -1.09173400
Ti      3.16521398     0.08620901     4.59046199    -3.92046172    -4.59814049    -0.28844189
Ti      0.03256599     4.62831599     0.07468400    -0.92770810     2.84509331    -1.55967598
Ti      0.01115199     0.41709899     4.52618198     1.02442018    -6.18512699     0.58338378
O       4.40246500     5.51267998     1.10063798     0.40132750    -0.45194997    -1.40759671
O       4.44787200     0.97381399     0.95328599     0.45417397    -0.03065039    -0.85980833
O       1.49048900     5.39984499     0.93481400     0.13023517    -0.01493657     0.40664711
O       1.38291801     1.02158901     0.69464600     2.14853236     1.31523854     1.77905569
O       4.31493601     8.23608498     3.88018700     1.01952917     2.20874710    -0.06407654
O       4.42279302     3.64222102     3.81765899     0.17878018    -1.31276642    -0.82789424
O       1.54644003     8.40267897     3.72141398    -1.03010592     1.69712232     1.51831977
O       1.43634798     3.63058600     3.79228002     0.45770333    -0.73863502    -0.86697194
O       2.92521802     6.12904198     3.25461599     0.71828344    -1.52773207     1.08518694
O       2.77724799     1.29125800     3.16413599     1.64007106     1.04852788    -0.95137229
O       0.00502099     6.07019700     3.39333398    -0.74428965    -0.51695339    -0.29027148
O       0.04754102     1.29253300     2.96654401     0.99741768     0.17462913     0.07695572
O       2.77604602     7.79301699     1.42395698     2.43490759     1.73652629    -0.89303856
O       3.16308801     3.29987001     1.56440300    -1.83340498    -1.88244108    -0.00512267
O       0.08288599     7.89176501     1.56237699    -2.07764264     0.81641992    -1.03332006
O       5.88202099     3.22883399     1.27358200     0.38670511    -2.74458628     3.12449417
