# total energy = -19946.55869595 eV

CRYSTAL
PRIMVEC
        5.25186652     0.00000000     0.00000000
        2.14986083     5.15959651     0.00000000
        0.00000000     0.00000000     9.60118937
PRIMCOORD
24 1
Ti      3.17755459     3.05757221     3.56197278     2.42040090    -3.46725114     1.17590192
Ti      4.22417284     2.10202445     6.03921670    -2.42040090     3.46725114    -1.17590192
Ti      5.40525171     2.10202620     1.23858358    -5.13304173     0.34019950     1.42852319
Ti      1.99647576     3.05757066     8.36260595     5.13304173    -0.34019950    -1.42852319
Ti      2.10262428     0.47777393     1.23862207     2.42036594    -3.46728097    -1.18121665
Ti      5.29910318     4.68182288     8.36256746    -2.42036594     3.46728097     1.18121665
Ti      0.92154533     0.47777204     6.03917816     5.13344745    -0.33995730     1.42598988
Ti      6.48018214     4.68182478     3.56201127    -5.13344745     0.33995730    -1.42598988
O       2.41925145     1.81678170     4.89941346     0.32168421     1.22735126    -1.12382961
O       4.98247594     3.34281497     4.70177602    -0.32168421    -1.22735126     1.12382961
O       1.72072630     1.81680254     0.09884963     0.97318630    -0.72266152     0.11684280
O       5.68100120     3.34279421     9.50233953    -0.97318630     0.72266152    -0.11684280
O       3.90754561     0.76301659     0.09881846    -0.32271393    -1.22888955    -1.12404250
O       3.49418183     4.39658007     9.50237070     0.32271393     1.22888955     1.12404250
O       4.60607081     0.76299578     4.89944458    -0.97291711     0.72294588     0.11793397
O       2.79565653     4.39660095     4.70174485     0.97291711    -0.72294588    -0.11793397
O       1.49847971     3.13835923     2.59352080     0.29671647    -0.14694194    -0.15316144
O       5.90324768     2.02123743     7.00766868    -0.29671647     0.14694194     0.15316144
O       3.65892973     2.02118942     2.20710448     1.79959110    -0.50876571    -1.40491017
O       3.74279765     3.13840725     7.39408484    -1.79959110     0.50876571     1.40491017
O       0.42354936     0.55856080     2.20707379     0.29664242    -0.14783874     0.15335016
O       6.97817807     4.60103586     7.39411548    -0.29664242     0.14783874    -0.15335016
O       2.66786732     0.55860887     7.00769927    -1.79910465     0.50834791    -1.40535085
O       4.73386006     4.60098780     2.59349015     1.79910465    -0.50834791     1.40535085
