# total energy = -19075.14542610 eV

CRYSTAL
PRIMVEC
        7.60600008     0.00000000     0.00000000
        0.00000000     7.60600008     0.00000000
       -1.89786986    -1.89786986     4.85670466
PRIMCOORD
22 1
Ti      3.85657897     6.60088198     1.24476899    -0.42562340     0.11969698    -1.95908569
Ti      3.79523902     2.81552402     1.15067402     1.87193683    -0.09204836     0.42122887
Ti      0.37838602     6.71262702     1.00481901    -0.19355246     1.42632772     0.83427186
Ti      0.04930699     2.83527598     1.23957098    -3.37009040    -0.53566049    -1.00883646
Ti      5.60836824     2.98630523     3.67343279     0.57348040    -1.15164844    -1.56915641
Ti      5.99692823    -0.81703475     3.52346883    -0.14525787     0.06896601     2.70737855
Ti      1.91227121     2.73220321     3.55555083    -1.50271934     0.43620633     1.34685335
Ti      1.30580821    -1.07426480     3.93883979     0.69072172    -0.80405033    -1.74151372
O       3.92299601     4.60583998     0.65133501    -0.70481163     1.59692665    -0.03811045
O       4.16072698     0.81925603     0.76822598    -1.22600966     0.53047483     1.40662766
O       0.09891000     4.88257698     0.75657302     0.16580690    -0.60729968    -0.06102310
O      -0.14220601     0.99204298     0.82887102     0.79098861    -0.00529750     0.23191231
O       5.60831024     4.87537425     3.96695482     0.12196392    -0.07456305    -0.43841979
O       5.37967821     0.93903122     4.01042583     1.23524686     0.33768470     0.18662745
O       1.95054422     4.77846824     4.03844682    -0.38402680    -1.99352229     0.42368813
O       1.65090422     0.70342024     4.10634079     0.15897831     2.55438705    -0.53147062
O       3.70407321     2.77875821     3.11579184     0.35972960    -0.05089321     0.42532850
O      -0.06418375     2.75615425     3.23847280     0.57425148     0.28218562    -0.01306044
O       5.63078001     6.55905602     1.80709199    -0.11136737    -0.23554965    -1.00745398
O       5.70587698     3.11896902     1.63756398    -0.79382017    -0.74597192     0.47728460
O       2.02497602     6.75385802     2.05964798     0.32273064    -0.70558605    -0.52109518
O       1.81688701     2.92300299     1.54053398     1.99144329    -0.35076494     0.42802456
