# total energy = -4979.95970207 eV

CRYSTAL
PRIMVEC
        5.15801976     0.00000000     0.00000000
       -0.00000781     3.09481186     0.00000000
       -2.57903893    -1.54746238     5.61730600
PRIMCOORD
6 1
Ti     -0.00022109     2.32121890     1.40432613    -0.00603284    -0.00900709    11.20111149
Ti      2.57919394    -0.77386954     4.21297918     0.00603284     0.00900709   -11.20111149
O       0.00005463     0.77369302     0.91501313     0.00403920     0.00463647    -5.57068736
O       2.57891811     0.77365628     4.70229224    -0.00403920    -0.00463647     5.57068736
O      -0.00002125    -0.77370332     3.72366613    -0.00241632    -0.00006222    -2.33992869
O       2.57899392     2.32105257     1.89363918     0.00241632     0.00006222     2.33992869
