# total energy = -4988.97190285 eV

CRYSTAL
PRIMVEC
        2.80363798     0.00000000     0.00000000
        0.00000000     4.39288039     0.00000000
        0.00000000    -0.00005701     4.39288039
PRIMCOORD
6 1
Ti      1.40181894     2.19641164     2.19644014     0.00000000     0.00000000     0.00000000
Ti      0.00000000     0.00000000     0.00000000     0.00000000     0.00000000     0.00000000
O       1.40181894     0.85609656     0.85610767     0.00000000     0.76907303     0.76907303
O       1.40181894     3.53672671     3.53677261     0.00000000    -0.76907303    -0.76907303
O       0.00000000     1.34029196     3.05254871     0.00000000    -0.76876399     0.76876399
O       0.00000000     3.05253131     1.34033158     0.00000000     0.76876399    -0.76876399
