# total energy = -19001.27934865 eV

CRYSTAL
PRIMVEC
        7.60600008     0.00000000     0.00000000
        0.00000000     7.60600008     0.00000000
       -1.89786986    -1.89786986     4.85670466
PRIMCOORD
22 1
Ti      4.64068302     5.29473102     0.48463000     0.32875526     2.62531842    -3.06723054
Ti      5.40735921     3.35798224     2.82992182    -5.70685715    13.42113083   -13.61487072
Ti      1.18870001     6.20716098     0.34871299     6.08501745    13.35633952     1.93881665
Ti      0.37827400     3.18409301     0.90660499     7.71744000   -15.82958972    21.16236433
Ti     -1.81753975     2.84101724     4.68310283   -27.53973304    51.70189453    33.94266829
Ti      5.75254920     1.61391124     3.94079081   -18.74020711   -58.33226399   -34.59635454
Ti     -0.40700679     2.39774922     3.99786480    43.98387424     4.40238768   -21.20047350
Ti      0.08632521    -0.81653177     3.95374782     3.35139025    -2.32134552     1.50350712
O       4.17773898     4.60732200     1.94448599    -0.71828113    -0.00745903     1.06667448
O       3.53198101     7.51421598     0.04702698    -1.69793376     0.40461054    -0.81208761
O       1.68683001     4.51041297     0.83776802     0.41912648     1.24004686     9.46525703
O       1.17794501     0.81633200     0.59697301     1.06031665    -1.60749286    -1.62548879
O      -0.70993780     4.69399425     3.36251179    -1.54576348     0.17117357    -1.81445954
O       4.86445002     1.72878699     2.35525898    -0.03219125    -1.18231837    -4.91440506
O       1.08404124     3.22619425     4.15908479     6.74357312     3.92894919     1.18679029
O       0.37884524     1.07190922     4.64474483     2.35837610   -10.91524200    -0.87503980
O       3.94980820     2.18951823     3.80368379    -3.38372934     2.38326182     0.66410179
O       0.35658699     2.03412200     2.22785702    -1.24867188    -0.22484383     1.52300098
O       6.53116700     6.57772899     0.36772400    -0.58242553    -2.34260984    -0.86315205
O       6.49125302     3.91593001     1.06635799    -7.73948027     2.77640112     3.05646404
O       0.97703800     6.33025899     1.90539699    -1.56748802     2.08757379     8.54029667
O       5.25473724     0.12189820     4.63609882    -1.54510759    -5.73592245    -0.66638005
