# total energy = -4981.07420534 eV

CRYSTAL
PRIMVEC
        4.06527489     0.00000000     0.00000000
        0.00000000     2.41608429     0.00000000
        0.00000000    -0.00009645     5.50831410
PRIMCOORD
6 1
Ti      2.03263744     1.20799377     2.75415680     0.00000000     0.00000000     0.00000000
Ti      0.00000000     0.00000000     0.00000000     0.00000000     0.00000000     0.00000000
O       2.03263744     0.47084039     1.07348920     0.00000000    -1.08115134     0.00508642
O       2.03263744     1.94514715     4.43482440     0.00000000     1.08115134    -0.00508642
O       0.00000000     0.73711523     3.82764722     0.00000000     1.08084383     0.00408754
O       0.00000000     1.67887231     1.68066638     0.00000000    -1.08084383    -0.00408754
