# total energy = -4984.08648390 eV

CRYSTAL
PRIMVEC
        2.99536822     0.00000000     0.00000000
        2.01021481     4.24099467     0.00000000
       -0.00001313    -0.00006306     4.82298615
PRIMCOORD
6 1
Ti      2.50278485     2.12046583     2.41149297     0.00000000     0.00000000     0.00000000
Ti      0.00000000     0.00000000     0.00000000     0.00000000     0.00000000     0.00000000
O       1.88944274     0.82649516     0.93992894    -4.54627283     2.18818264     2.58677088
O       3.11612690     3.41443650     3.88305701     4.54627283    -2.18818264    -2.58677088
O       0.61333661     1.29394521     3.35142291     4.54563597    -2.18818289     2.58627054
O       1.39686494     2.94698632     1.47156304    -4.54563597     2.18818289    -2.58627054
