# total energy = -19909.31454301 eV

CRYSTAL
PRIMVEC
        6.57526058     0.00000000     0.00000000
        0.34972077     6.98932169     0.00000000
        0.00000000     0.00000000    11.77195047
PRIMCOORD
24 1
Ti      2.59045982     4.14186539     4.36730966    -0.03686938    -1.13040624     0.64692399
Ti      4.33452125     2.84745604     7.40464094     0.03686938     1.13040624    -0.64692399
Ti      5.81321406     2.84745843     1.51861860     0.13386711     0.66592008    -0.58294438
Ti      1.11176709     4.14186327    10.25333214    -0.13386711    -0.66592008     0.58294438
Ti      2.41559958     0.64720481     1.51866578    -0.03686938    -1.13040624    -0.64692399
Ti      4.50938150     6.34211682    10.25328496     0.03686938     1.13040624     0.64692399
Ti      0.93690684     0.64720222     7.40459370    -0.13386711    -0.66592008    -0.58294438
Ti      5.98807431     6.34211941     4.36735690     0.13386711     0.66592008     0.58294438
O       2.20425401     2.46105888     6.00713622     1.50977728     1.48147302    -0.14639970
O       4.72072706     4.52826255     5.76481438    -1.50977728    -1.48147302     0.14639970
O       1.32970124     2.46108708     0.12119882    -1.30323148     1.11918208     0.15230321
O       5.59527991     4.52823441    11.65075144     1.30323148    -1.11918208    -0.15230321
O       4.54586681     1.03360177     0.12116065    -1.50977728    -1.48147302    -0.14639970
O       2.37911426     5.95571966    11.65078962     1.50977728     1.48147302     0.14639970
O       5.42041966     1.03357363     6.00717446     1.30323148    -1.11918208     0.15230321
O       1.50456136     5.95574793     5.76477614    -1.30323148     1.11918208    -0.15230321
O       0.45161441     4.25130150     3.17989756     0.48966164     0.06555878     0.59646659
O       6.47336673     2.73801992     8.59205311    -0.48966164    -0.06555878    -0.59646659
O       3.66353516     2.73795480     2.70611517     0.51052615     0.61765994    -0.07172326
O       3.26144599     4.25136662     9.06583522    -0.51052615    -0.61765994     0.07172326
O       0.27675416     0.75664072     2.70607761     0.48966164     0.06555878    -0.59646659
O       6.64822698     6.23268070     9.06587279    -0.48966164    -0.06555878     0.59646659
O       3.08658574     0.75670584     8.59209061    -0.51052615    -0.61765994    -0.07172326
O       3.83839541     6.23261558     3.17985992     0.51052615     0.61765994     0.07172326
