# total energy = -19075.04475455 eV

CRYSTAL
PRIMVEC
        7.60600008     0.00000000     0.00000000
        0.00000000     7.60600008     0.00000000
       -1.89786986    -1.89786986     4.85670466
PRIMCOORD
22 1
Ti      3.95942198     6.65392798     1.17185900     0.10165889    -0.21567501    -0.29868902
Ti      3.60509701     2.74696101     1.15222901     1.04786788     1.03678154     0.53253917
Ti      0.02251702     6.75650401     1.05006298     0.08622969    -0.80344844     1.07843394
Ti     -0.09300798     2.91527901     1.13486602    -1.46295310     0.12406991    -0.38897180
Ti      5.58567421     2.88180622     3.51148979     0.33875659    -0.58606493     0.24075433
Ti     -1.21060276    -0.88754577     3.82902879    -3.67557408     0.37766151    -1.24038753
Ti      1.82209523     2.79354321     3.64034683     0.09282971    -0.75682584     0.56686161
Ti      1.50189224    -1.00336177     3.82863180     2.21769326     0.92709001    -1.58273287
O       3.70556898     4.64782300     0.79885503     0.13329452     1.82718959    -0.12620033
O       4.08026701     0.95571301     0.90616598    -1.24264599    -1.77802211     0.11734056
O      -0.07455203     4.77858699     0.66274598     0.22640243     0.10947581     0.35916190
O       7.25440900     0.98849098     0.67058098     1.86731167     0.00553404     0.55898889
O       5.54142822     4.84866122     4.05943182     1.25391951     0.02174100    -1.74012661
O       5.65254221     0.96897022     3.98890684     1.15885216    -0.86949856    -0.07384674
O       2.25691922     4.84761424     4.14190780    -1.12497298    -1.19863100     0.05540678
O       2.07033122     0.88095920     4.07183283    -1.38307686    -0.39611124    -0.42341071
O       3.73760024     2.68519724     3.13350880    -0.34632412     0.72826884     0.23517195
O      -0.04371877     2.76059325     3.18741683     0.19275208     0.72454460     0.59497946
O       5.90981200     6.59340301     1.90299902    -0.85191478     0.04308759     0.67250211
O       5.66871498     2.78157000     1.54338699    -0.20534869     1.14062046     0.93898985
O       1.86150798     6.75972300     1.85589399     0.36174458    -0.37359248     0.29778965
O       1.74400301     2.79224800     1.64037200     1.21349789    -0.08819504    -0.37455511
