# total energy = -19960.44489098 eV

CRYSTAL
PRIMVEC
        7.60600008     0.00000000     0.00000000
        0.00000000     7.60600008     0.00000000
       -1.89786986    -1.89786986     4.85670466
PRIMCOORD
24 1
Ti      3.74625801     6.62924302     1.22900898     0.98542219    -0.94528134    -0.47099902
Ti      3.73068802     2.87830598     1.13647598    -0.75520090     0.78252325     1.81384813
Ti      0.04670698     6.69024800     1.25052802    -0.53914896    -0.41198652    -0.44423383
Ti     -0.10199198     2.86680600     1.21159598     1.21091265     0.38567230    -0.50547238
Ti      5.66871424     2.92456120     3.63011281     1.21910059    -0.41281108     0.70494378
Ti      5.70188725    -0.97280977     3.60859583     1.89224881     0.28591860    -0.22331788
Ti      1.91365422     2.77705521     3.64361582    -0.98372757     1.75399591    -0.53799454
Ti      2.02900322    -1.03527380     3.72135281    -1.45533517    -1.87311491    -0.90790829
O       3.57499101     4.79342501     0.74897298     0.88511159    -1.84301679    -0.10434955
O       3.67142102     0.81604900     0.90354301     0.40074694     2.86926940    -0.56066191
O      -0.02359501     4.77597402     0.69020800    -0.29299814     0.53854732     0.46400330
O       0.05592398     0.95140698     0.70002302    -0.37453994     1.41517093     0.70434574
O      -1.54146179     4.85437120     4.07533381    -0.65189908    -1.40846112    -0.41308413
O       5.97594021     1.05048521     3.98248882    -1.50078330    -1.13569577     0.25366770
O       1.64944522     4.72211721     4.05663480     0.99452415     0.57073832     0.46843434
O       1.84890324     0.90484420     4.12587082     0.61402517    -0.68598858    -0.47785513
O       3.79686423     2.95416624     3.27077182    -0.34329356    -0.49329692    -0.29441379
O       3.87689123     6.22512221     3.22654181    -0.49606677     1.12691776     0.55002319
O       0.01907224     2.76814223     3.11399983    -0.89939047    -0.02412596     0.29548285
O       0.03319920    -1.00920976     3.09613984     0.59089475     0.60120745     1.12604667
O       5.76522299     6.75117202     1.55420898    -0.99309796    -0.21832119     0.19048925
O       5.64869202     3.05534302     1.59095600    -0.80422414    -0.51256246    -0.51010834
O       1.98951701     6.57507199     1.76999699    -0.82962999     0.58366172     0.12114348
O       1.79981798     3.09489701     1.74961398     2.12634964    -0.94896059    -1.24203021
