# total energy = -4985.88099628 eV

CRYSTAL
PRIMVEC
        2.92154242     0.00000000     0.00000000
        1.55455816     4.30557130     0.00000000
       -0.00001010    -0.00006065     4.65154776
PRIMCOORD
6 1
Ti      2.23804523     2.15275527     2.32577388     0.00000000     0.00000000     0.00000000
Ti      0.00000000     0.00000000     0.00000000     0.00000000     0.00000000     0.00000000
O       1.76372970     0.83908060     0.90651816    -3.98182215     1.87498256     2.13374953
O       2.71236076     3.46642994     3.74502965     3.98182215    -1.87498256    -2.13374953
O       0.47431128     1.31365015     3.23229297     3.98276523    -1.87707441     2.13617229
O       1.08023686     2.99186037     1.41925484    -3.98276523     1.87707441    -2.13617229
