# total energy = -19517.21517709 eV

CRYSTAL
PRIMVEC
        7.60600008     0.00000000     0.00000000
        0.00000000     7.60600008     0.00000000
       -1.89786986    -1.89786986     4.85670466
PRIMCOORD
23 1
Ti      3.79411500     6.61981700     1.27799402     0.34772383    -0.91855908    -1.41502746
Ti      3.73624899     2.64117901     1.26972202     0.01088708     1.60508322     1.06510045
Ti     -0.06305703     6.78553399     1.07475899    -0.28873911    -0.44322981     0.67893989
Ti     -0.08672501     2.91215999     1.19089102     0.76340786     0.37697734    -0.45857236
Ti      5.64079723     2.88902520     3.70977182     0.37613942    -0.02711306     0.53600553
Ti      5.76994521    -0.87097278     3.51558282     0.72382829     0.54457605     0.57463868
Ti      2.03486523     2.76773524     3.72068583     1.34165766     0.29269835     0.95895344
Ti      2.01119725    -1.01351578     3.62784084    -1.51874117    -0.37803458    -0.18452377
O       4.06107201     4.54179102     0.98558898    -0.55686567     1.37496786    -0.72906357
O       3.38926699     0.87140200     0.71604699     0.83991724    -0.20283286    -0.17215470
O       7.10255699     4.87044602     0.78867403     1.21922297     0.46912777     0.91665878
O       0.02848900     1.08218399     0.61168598     0.79642675    -1.82152674     0.30529342
O       5.82704725     4.71705420     3.83423880     0.23134075     2.14241570     1.03681059
O       5.58187525     1.07968722     4.15354282     1.29472344    -1.48352347    -0.30700166
O       2.04206723     4.63991323     4.06992382    -0.33355422     0.42191124     0.37120830
O       1.90911224     0.85845023     4.15494980    -0.04503237     0.11403027    -0.87653130
O       3.94058623     2.76155921     3.29449780    -3.83568368    -0.08936129    -1.37310921
O       3.88647124    -0.82114577     3.23852582    -1.84973278    -0.68547153    -0.23063498
O      -0.02388775    -0.90829677     3.09330482     1.22219440     0.20570967    -0.72348787
O       5.62966302    -0.34576002     1.54904098     0.97388282    -1.44022865     0.23223446
O       5.88134401     2.47438101     1.89178501     0.00624110     0.41962065    -1.39079943
O       1.94801899     6.50130500     1.43507499    -1.04799824    -0.09396486     1.36336909
O       1.84599600     2.98101002     1.75581901    -0.67124612    -0.38327218    -0.17830633
