# total energy = -19515.10069515 eV

CRYSTAL
PRIMVEC
        5.17600016     0.00000000     0.00000000
        0.00000000     5.50899976     0.00000000
        0.00000000     0.00000000     9.26300011
PRIMCOORD
23 1
Ti      1.77443599     3.26387997     3.43926598    -0.68291791    -0.16680809     2.66809645
Ti      3.34142698     2.30332299     5.82661999    -0.92837505     1.47574074    -3.07969242
Ti      4.34072901     1.97754401     1.54091700     0.34663266     0.06935425    -1.22068824
Ti      0.89390198     3.08016302     7.78543901     3.60549941     3.83245386     1.80651612
Ti      2.00121898     0.25945598     1.36047698     1.52965037    -0.66091260    -2.30228078
Ti      3.38779498     5.32980002     7.71370300    -1.14345665    -1.04353043     3.49506689
Ti      0.64459499     0.61707603     6.08285799    -0.71663331    -3.71938390    -5.18498317
Ti      4.43725602     5.02475998     3.27790598     0.89201860    -0.68161538     2.63344722
O       1.54237499     2.13717202     5.05094901     0.60226468     0.41153247    -1.68255342
O       3.51198298     3.68125901     4.43658698    -0.34139095    -1.32912867     1.62969923
O       0.25931400     2.64018003     0.02303900     0.24496194    -0.08239155     1.61740935
O       3.63031199     0.90197902     0.14074898    -0.65155686     0.40445833    -0.65022837
O       1.97574698     4.91350602     8.94509899    -0.73932176    -0.83233274     0.12792811
O       4.19510700     0.84895202     4.90099902    -0.07049582    -0.08551004    -0.52697376
O       0.89838300     4.75621200     4.41069201    -0.07375624     0.94765164     0.28427310
O       0.10096601     3.39861797     2.55853200    -0.14843061    -1.31956699    -0.86106894
O       5.05877401     1.96662698     6.93693298    -4.44157156    -0.98454519    -0.41685620
O       2.52971401     1.90489797     2.23170297    -0.03210435    -0.10848645     0.29483597
O       2.84313802     3.50123100     7.19369898    -0.91919338     0.18952611     0.37728562
O       0.21570699     0.40464200     1.71518602    -0.22183203     0.28388460     1.50571210
O       5.08879302     4.60009598     7.27512698     0.41658186     1.55832204    -0.82424893
O       2.20218600     0.97384902     6.85082398     2.87800601    -0.13653874     1.91916159
O       2.77370901     4.40400898     2.34919800     0.59542066     1.97782724    -1.60985699
