# total energy = -19517.90613389 eV

CRYSTAL
PRIMVEC
        7.60600008     0.00000000     0.00000000
        0.00000000     7.60600008     0.00000000
       -1.89786986    -1.89786986     4.85670466
PRIMCOORD
23 1
Ti      3.85191502     6.56602899     1.26377000    -0.54991495     0.67903965     0.72226840
Ti      3.79964897     2.83581199     1.17128198     1.35426147    -0.09008686    -0.23830561
Ti     -0.00436899     6.60028602     1.32098998     0.21572695     1.59757174    -0.99814941
Ti      0.08080002     2.87356000     0.98144102    -1.45596947    -0.99976664     1.17343186
Ti      5.51909022     2.90451925     3.69936883    -0.05575671    -0.00121742    -2.42042867
Ti      5.78125923    -1.00832476     3.62239179    -2.56115343    -0.51661941     1.12766184
Ti      1.89841121     2.95155522     3.60328384    -0.16752569    -1.63304809     0.52597720
Ti      1.90787624    -0.99887080     3.71803280     1.16860642     1.29264316     0.05748500
O       3.77257902     4.74984001     0.69141199    -0.41497980     0.09070007     1.20939467
O       4.15291998     0.93460301     0.71807702    -0.48762635    -0.27410104     1.07599782
O       0.14455403     4.86053897     0.73311698     0.58380956    -1.75106768     1.15806257
O      -0.18960299     0.89437401     0.69571600     0.70501217    -0.11964273     0.95753419
O       5.66065921     4.67346423     4.00797082     0.70491319     1.83389143     0.23372108
O       5.65404624     0.95627123     4.01648380     0.60592079     0.50183170    -0.79760355
O       1.54425521     4.71098824     4.18421579     0.08616258     0.79441178    -1.56573967
O       1.82140222     1.00023724     4.11730381    -0.31342093    -0.25227879    -0.99690603
O       3.71807424     2.92184425     3.40462980     0.04369231     0.03053572    -1.44254290
O       3.84682322    -0.82698080     3.32427381    -0.33751835    -0.79404720    -0.75547549
O      -0.03945080    -0.84668778     3.25569879     1.29880764    -0.15117758    -0.26134168
O       5.67078301     6.35521800     1.67427200     1.30178987     0.42658474    -0.31572541
O       5.73506402     3.05716598     1.63493799     1.12021258    -0.51168597     0.86053363
O       2.01953100     6.78496301     1.80877298    -1.66149273    -0.43317911    -1.04121309
O       1.94029300     2.70328298     1.32582402    -1.18355739     0.28070801     1.73136377
