# total energy = -19905.49728850 eV

CRYSTAL
PRIMVEC
        6.65800930     0.00000000     0.00000000
        1.40322982     6.94580871     0.00000000
        0.00000000     0.00000000    11.97699723
PRIMCOORD
24 1
Ti      3.24476072     4.11607981     4.44338070    -0.27184104    -1.61671027     0.64111690
Ti      4.81647807     2.82972907     7.53361700     0.27184104     1.61671027    -0.64111690
Ti      6.31378031     2.82973156     1.54507030     0.26994151    -0.12322119    -0.37845007
Ti      1.74745852     4.11607759    10.43192754    -0.26994151     0.12322119     0.37845007
Ti      2.54314598     0.64317571     1.54511832    -0.27184104    -1.61671027    -0.64111690
Ti      5.51809284     6.30263337    10.43187952     0.27184104     1.61671027     0.64111690
Ti      1.04584366     0.64317303     7.53356898    -0.26994151     0.12322119    -0.37845007
Ti      7.01539516     6.30263605     4.44342872     0.26994151    -0.12322119     0.37845007
O       2.60140294     2.44573735     6.11177019     1.72095440     1.85404863    -0.48269652
O       5.45983586     4.50007152     5.86522751    -1.72095440    -1.85404863     0.48269652
O       1.71584828     2.44576533     0.12330992    -0.92778523     0.43199794     0.70002398
O       6.34539059     4.50004361    11.85368745     0.92778523    -0.43199794    -0.70002398
O       4.75822109     1.02716722     0.12327104    -1.72095440    -1.85404863    -0.48269652
O       3.30301770     5.91864166    11.85372633     1.72095440     1.85404863     0.48269652
O       5.64377583     1.02713931     6.11180907     0.92778523    -0.43199794     0.70002398
O       2.41746291     5.91866964     5.86518863    -0.92778523     0.43199794    -0.70002398
O       1.09542473     4.22483451     3.23528587     0.50615270     1.20174075     1.43035253
O       6.96581407     2.72097436     8.74171183    -0.50615270    -1.20174075    -1.43035253
O       4.12061139     2.72090949     2.75325108     0.55137739     1.44073027     0.66822405
O       3.94062740     4.22489939     9.22374642    -0.55137739    -1.44073027    -0.66822405
O       0.39380996     0.75193021     2.75321281     0.50615270     1.20174075    -1.43035253
O       7.66742885     6.19387873     9.22378469    -0.50615270    -1.20174075     1.43035253
O       3.23901263     0.75199502     8.74175003    -0.55137739    -1.44073027     0.66822405
O       4.82222617     6.19381386     3.23524760     0.55137739     1.44073027    -0.66822405
