# total energy = -19953.40654528 eV

CRYSTAL
PRIMVEC
        5.57956278     0.00000000     0.00000000
        0.88579902     5.87190479     0.00000000
        0.00000000     0.00000000    10.01455023
PRIMCOORD
24 1
Ti      2.54724680     3.47968528     3.71532674     0.26564416    -1.39195874     0.78035221
Ti      3.91811492     2.39221934     6.29922372    -0.26564416     1.39195874    -0.78035221
Ti      5.17288810     2.39222133     1.29190844    -0.45765576    -0.21505075     0.00144367
Ti      1.29247364     3.47968353     8.72264213     0.45765576     0.21505075    -0.00144367
Ti      2.10434742     0.54373299     1.29194860     0.26564416    -1.39195874    -0.78035221
Ti      4.36101432     5.32817180     8.72260197    -0.26564416     1.39195874     0.78035221
Ti      0.84957422     0.54373084     6.29918356     0.45765576     0.21505075     0.00144367
Ti      5.61578752     5.32817396     3.71536690    -0.45765576    -0.21505075    -0.00144367
O       2.07787172     2.06759743     5.11034838     1.18219753     1.36023338    -0.42030970
O       4.38749001     3.80430720     4.90420203    -1.18219753    -1.36023338     0.42030970
O       1.33575562     2.06762116     0.10310540    -0.56975513     0.22281677     0.53332695
O       5.12960617     3.80428352     9.91144477     0.56975513    -0.22281677    -0.53332695
O       3.94459061     0.86835474     0.10307292    -1.18219753    -1.36023338    -0.42030970
O       2.52077112     5.00354989     9.91147726     1.18219753     1.36023338     0.42030970
O       4.68670677     0.86833105     5.11038091     0.56975513    -0.22281677     0.53332695
O       1.77865491     5.00357363     4.90416954    -0.56975513     0.22281677    -0.53332695
O       0.74151158     3.57162535     2.70517991     0.19654240     0.54398238     0.66210405
O       5.72385014     2.30027922     7.30937055    -0.19654240    -0.54398238    -0.66210405
O       3.33950841     2.30022461     2.30212718     0.65271669     0.71203875     0.05516150
O       3.12585331     3.57167996     7.71242311    -0.65271669    -0.71203875    -0.05516150
O       0.29861218     0.63567289     2.30209515     0.19654240     0.54398238    -0.66210405
O       6.16674954     5.23623168     7.71245508    -0.19654240    -0.54398238     0.66210405
O       2.68295391     0.63572750     7.30940246    -0.65271669    -0.71203875     0.05516150
O       3.78240781     5.23617707     2.70514794     0.65271669     0.71203875    -0.05516150
