# total energy = -19911.83625914 eV

CRYSTAL
PRIMVEC
        6.51547202     0.00000000     0.00000000
        2.35496342     6.52230857     0.00000000
        0.00000000     0.00000000    11.84958271
PRIMCOORD
24 1
Ti      3.75709447     3.86511391     4.39611069    -0.24309867    -2.08432931     0.59435442
Ti      5.11334120     2.65719448     7.45347215     0.24309867     2.08432931    -0.59435442
Ti      6.57858906     2.65719670     1.52863342    -0.06106244    -0.90622987     0.03090776
Ti      2.29184665     3.86511189    10.32094955     0.06106244     0.90622987    -0.03090776
Ti      2.57961292     0.60395980     1.52868093    -0.24309867    -2.08432931    -0.59435442
Ti      6.29082277     5.91834872    10.32090205     0.24309867     2.08432931     0.59435442
Ti      1.11436497     0.60395740     7.45342464     0.06106244     0.90622987     0.03090776
Ti      7.75607074     5.91835118     4.39615820    -0.06106244    -0.90622987    -0.03090776
O       2.89141074     2.29661565     6.04675136     1.83207778     2.07686720    -0.73872526
O       5.97902493     4.22569274     5.80283148    -1.83207778    -2.07686720     0.73872526
O       2.02481827     2.29664196     0.12199813    -0.43811588    -0.44260092     1.36538175
O       6.84561747     4.22566649    11.72758439     0.43811588     0.44260092    -1.36538175
O       4.80154336     0.96453850     0.12195968    -1.83207778    -2.07686720    -0.73872526
O       4.06889231     5.55776989    11.72762284     1.83207778     2.07686720     0.73872526
O       5.66813589     0.96451218     6.04678981     0.43811588     0.44260092     1.36538175
O       3.20229971     5.55779622     5.80279303    -0.43811588    -0.44260092    -1.36538175
O       1.66914437     3.96723770     3.20086792     0.58604385     2.34735327     2.28778335
O       7.20129130     2.55507070     8.64871493    -0.58604385    -2.34735327    -2.28778335
O       4.41699045     2.55500994     2.72396117     0.64845020     1.97733513     1.31828016
O       4.45344522     3.96729845     9.12562148    -0.64845020    -1.97733513    -1.31828016
O       0.49166280     0.70608345     2.72392331     0.58604385     2.34735327    -2.28778335
O       8.37877287     5.81622494     9.12565934    -0.58604385    -2.34735327     2.28778335
O       3.27596365     0.70614421     8.64875266    -0.64845020    -1.97733513     1.31828016
O       5.59447202     5.81616418     3.20083012     0.64845020     1.97733513    -1.31828016
