# total energy = -19518.10430442 eV

CRYSTAL
PRIMVEC
        5.93400000     0.00000000     0.00000000
        0.00000000     9.29699974     0.00000000
        0.00000000     0.00000000     4.64899994
PRIMCOORD
23 1
Ti      4.54670802     7.16871102     2.18498001     0.52367066    -0.66542026     0.52007548
Ti      4.51309902     2.31048000     2.31317500    -0.19000794    -0.93510620    -0.19286598
Ti      1.35833101     7.04292998     2.16344202    -1.30181301     0.08987217     0.69505892
Ti      1.49575897     2.29650999     2.41849900     0.12203257    -0.60558964     0.02288128
Ti      2.98633497     4.47129000     0.19109300    -0.10447862     0.53215042     0.70639054
Ti      2.96151100     9.28123000     4.64287498     0.04301380     0.65833892    -0.28379204
Ti      5.90612501     4.57201402     0.06960401     0.22323483     1.11191974    -0.19334034
Ti      0.03541799     0.03029302     4.55667899    -0.25914955     0.74955218    -0.27741493
O       4.42553400     5.54865900     1.05300701    -0.30518389    -0.16666797    -0.91768414
O       4.45152798     0.97157001     0.84765602    -0.65922621    -0.35548085     0.41000112
O       1.44431099     5.65981300     0.91345598     0.63732066    -1.18497895    -0.50509520
O       1.42231298     0.92493299     0.82802799     1.05922110     0.01473320     0.63493159
O       4.44485400     8.47603897     3.59024502    -0.71815874    -0.43019740     0.63762636
O       4.45287701     3.62766700     3.95316102    -0.31915064     0.37736764    -1.24933060
O       1.41739200     8.35584700     3.70522100     0.97463898    -0.12607152    -0.10990442
O       1.51348202     3.69293303     3.88356199     0.06538421     0.32971762    -0.94843737
O       2.96655099     1.37859299     3.21201801     0.15494759    -0.10074280     0.05081607
O       5.85534998     6.14537901     3.19901099    -0.07504230    -0.52451630     0.31311703
O       5.92291501     1.43022900     3.23341101     0.24668278     0.11204795    -0.22336853
O       2.88861298     7.76033198     1.46997000     0.88468196     0.80340010    -0.54875487
O       3.01320802     3.29018501     1.52365000    -0.66670349    -0.33250675     0.70368291
O       5.91610402     7.97235002     1.28773299     0.12304816    -0.58659766     0.56974433
O       0.08976301     3.12025402     1.40220599    -0.45896240     1.23477661     0.18566277
