# total energy = -4981.79592694 eV

CRYSTAL
PRIMVEC
        4.58659696     0.00000000     0.00000000
       -0.00000745     3.05773095     0.00000000
       -2.29332551    -1.52891213     5.08117864
PRIMCOORD
6 1
Ti     -0.00019712     2.29340929     1.27029440    -0.00638585    -0.01042583    12.64536135
Ti      2.29346118    -0.76459080     3.81088356     0.00638585     0.01042583   -12.64536135
O       0.00004827     0.76442443     0.82768236     0.00452180     0.00577907    -5.79163673
O       2.29321568     0.76439401     4.25349565    -0.00452180    -0.00577907     5.79163673
O      -0.00001965    -0.76442725     3.36827157    -0.00211216    -0.00003420    -1.39990320
O       2.29328355     2.29324564     1.71290649     0.00211216     0.00003420     1.39990320
