# total energy = -19517.81479190 eV

CRYSTAL
PRIMVEC
        5.93400000     0.00000000     0.00000000
        0.00000000     9.29699974     0.00000000
        0.00000000     0.00000000     4.64899994
PRIMCOORD
23 1
Ti      4.46899797     6.96762901     2.28236900     1.64098509     0.33657090     0.02041251
Ti      4.48780298     2.34642299     2.35217398     0.39565410     0.32208658    -0.71275197
Ti      1.49819800     7.04748900     2.26050699    -1.29558348    -0.19390727    -0.57826008
Ti      1.51212002     2.29472100     2.36782498    -0.70139720     0.68529026    -0.42464690
Ti      2.97857898     4.58124102     0.17199298    -0.90908611     0.11685797     0.65531967
Ti      2.98122799     0.10113900     4.56227499     0.20113233    -1.34370863     0.35059524
Ti      5.91045098     4.53710700     4.63190101     0.73079366     1.08322390    -0.39871114
Ti      0.01181399     0.08476398     4.60293702    -0.45768276    -0.82010662     0.34470819
O       4.50256300     5.45627799     0.95605702    -0.99601154     0.78326270    -0.01131774
O       4.40801400     0.92204902     0.86857101    -0.30680574     0.39969768     0.40611001
O       1.43882299     5.52489598     1.00743500     0.64337972     0.02827058    -0.65025897
O       1.50785798     0.93534698     0.93805399     0.03580340     0.03926564    -0.30610743
O       4.48937998     8.47393698     3.58190698    -0.75521504    -0.26549581     0.58906232
O       4.35837702     3.62980297     3.82390498     0.29823959     0.50484066    -0.33482229
O       1.33237301     8.45211201     3.73845698     1.44263186    -0.67052184    -0.87904687
O       1.47221598     3.61805101     3.87283800     0.38401420     0.46929129    -0.58142203
O       2.98517798     1.48755202     3.21827199    -0.08948059    -0.94549217     0.32026830
O       5.88947000     6.00132902     3.23911601    -0.23121579     0.16200964     0.05977946
O       5.92473400     1.39416398     3.15532699    -0.07882491     0.24562632     0.43970148
O       2.91346002     7.77711701     1.21398601     0.27596380    -0.13058689     1.17080445
O       2.92232098     3.35046898     1.50456501     0.34886926    -0.91711592     0.49498279
O       5.92794299     7.79192201     1.40764498    -0.25945474     0.98702424    -0.61824384
O       0.01473499     3.28827600     1.44864997    -0.31670938    -0.87638295     0.64384509
