# total energy = -19960.38809086 eV

CRYSTAL
PRIMVEC
        5.93400000     0.00000000     0.00000000
        0.00000000     9.29699974     0.00000000
        0.00000000     0.00000000     4.64899994
PRIMCOORD
24 1
Ti      4.46309802     6.86766399     2.36176299    -0.39942334     1.15705856    -0.51838215
Ti      4.44575302     2.37305998     2.32176799     0.64080245    -1.07932020     0.21634401
Ti      1.43487099     6.91929798     2.25961803     0.26198265     1.08843579    -0.02791448
Ti      1.56185300     2.44924801     2.33551400    -0.42480014    -1.34820704     0.33966342
Ti      3.00591300     4.72343201     4.52949003    -0.71285276    -0.25521294     0.71921907
Ti      2.97036599     9.20645699     0.03819898    -0.58075663     0.24683705    -0.23196424
Ti      5.90805000     4.63510301     0.01429800     0.71901672    -0.08019762     0.36008596
Ti      5.92732798     0.04680499     0.04441199     0.16732231     0.39059262    -0.28370977
O       4.43683199     5.65473502     0.79539902    -0.42960244    -0.13957804     0.16316690
O       4.35584501     0.96811602     0.97761200     0.97288729    -0.83387360    -0.91282424
O       1.44428802     5.64219198     0.78128602     0.47311452    -0.65118148    -0.07957696
O       1.51884100     0.88165401     0.93838298    -0.61439387    -0.17083110    -0.49423229
O       4.47849401     8.37921398     3.83662402     0.14143952    -0.32226682    -0.25412330
O       4.43748700     3.71532802     3.80238397    -0.23360512     0.09133256    -0.12366085
O       1.55830302     8.23870203     3.65457302    -0.55208419     1.43108683     2.03153246
O       1.39434300     3.62874203     3.82740898     0.85631471     0.69239217    -0.26159930
O       2.91028702     5.92077999     3.04653201     0.75793501    -0.85612959     1.09967331
O       2.88451000     1.36224798     3.28812598     0.22077660     1.18673836    -0.92784514
O       5.91471599     6.01267400     3.25060900    -0.05409963     0.04125799    -0.75480366
O       0.01561099     1.45469201     3.17327001    -0.05603387    -0.56386499     0.77460605
O       3.00066599     7.88479198     1.63960702     0.19015038     0.47640888    -1.79254654
O       3.08599000     3.43737402     1.49713600    -1.34881202    -0.93676713     0.19725099
O       0.00438302     7.82091500     1.37392401    -0.50858213     0.33869489     0.34396128
O       5.87700301     3.27702998     1.40815500     0.51330371     0.09659510     0.41767921
