# total energy = -19961.36553972 eV

CRYSTAL
PRIMVEC
        7.60600008     0.00000000     0.00000000
        0.00000000     7.60600008     0.00000000
       -1.89786986    -1.89786986     4.85670466
PRIMCOORD
24 1
Ti      3.73076200     6.66032901     1.25747803    -0.48082192    -0.03055526     0.81091235
Ti      3.79818400     2.95115802     1.22495601     0.21269253    -0.04151408     0.50303806
Ti      0.00520599     6.61868398     1.21772798     0.78896310    -0.75365644    -1.20968366
Ti      0.06391302     2.73856699     1.16057498    -0.84916678     1.15307155    -0.19310997
Ti      5.74201524     2.82269024     3.60184882     0.24400215    -0.04270321     0.34879753
Ti      5.77030923    -1.00645676     3.57886480    -1.30007648    -0.05084230     0.31692303
Ti      1.87571925     2.93069722     3.69340881    -0.25341471    -0.10120920    -1.46576152
Ti      1.81970324    -0.94606579     3.76593684     1.25733419    -0.06023068    -1.32712244
O       3.63197202     4.80904701     0.74190698     0.54716361    -0.53292586     0.95554133
O       3.73110798     0.95994701     0.80242300     0.14413815     0.80680476     0.54272280
O       0.16924602     4.64865201     0.67855600    -0.79606526     0.87776646     0.26946919
O       0.10854600     0.88615398     0.80032000    -0.42351741    -0.17315692    -0.41981579
O       5.88234124     4.72131524     4.07113082    -0.44912844     0.43954722     0.09885098
O       5.69813724     0.88522824     3.87976382    -0.31196055    -0.18607003     0.65556162
O       1.70439822     4.79311020     4.11232182     0.30348927     0.38749419    -0.30458302
O       1.90446225     1.07998023     4.10990480     0.26368061    -1.57961669    -0.25901431
O       3.81720025     3.05063721     3.16963483    -0.57846397    -0.26944837     0.25891610
O       3.74938020    -1.16062779     3.18514782    -0.02329986     0.69092998     0.83102919
O       0.01293823     2.89009023     3.10044983    -0.05250477    -0.39070601     1.14866416
O       0.01048723    -0.83592675     3.18170981     0.12463350    -0.15625860     0.32414912
O       5.66449601     6.56192802     1.64682500     0.72679020    -0.04903893    -0.52871876
O       5.77046698     2.92750200     1.65052300    -1.56543294    -0.23398976    -1.21170429
O       1.88129900     6.52826002     1.64338001    -0.46793298     0.60804658     0.30023348
O       1.79825902     2.89777298     1.67334202     2.93889850    -0.31173866    -0.44529544
