# total energy = -39040.39443777 eV

CRYSTAL
PRIMVEC
        7.60629642    -0.00000847    -0.00005503
       -0.00000847     7.60629642    -0.00005503
       -3.80314186    -3.80314186     9.70738094
PRIMCOORD
46 1
Ti      1.90152595     4.71690238     6.06194850    -0.00004268    -0.01558038    -0.00131615
Ti      3.83187320     6.66137695     1.18970718    -0.00544688     0.01173735     0.01207596
Ti      1.90152633     0.96498449     5.92102652     0.00004242    -0.02957875    -0.01835897
Ti      3.79855549     2.84408298     1.24694099    -0.01220837    -0.00262278     0.00294829
Ti     -1.90166544     4.79696054     6.06846480     0.00005425    -0.00347768    -0.01457199
Ti     -0.02885319     6.66131080     1.18974816     0.00545820     0.01175303     0.01221377
Ti     -1.90169431     0.95720797     6.13258603     0.00022317     0.00642313     0.00504965
Ti      0.00435299     2.84405738     1.24699128     0.01208625    -0.00271174     0.00301231
Ti      3.88683920     0.94730064     8.54347712     0.01361631     0.00020466     0.03006726
Ti      5.70478444     2.83120036     3.66875344     0.00009102    -0.02341942    -0.02543799
Ti      3.78438408    -2.83489001     8.48547308    -0.00691678    -0.00552119    -0.00316143
Ti      5.70475011    -0.94199221     3.64503410     0.00001568     0.01638693    -0.00049571
Ti     -0.08364178     0.94738604     8.54348140    -0.01386365     0.00021289     0.02999707
Ti      1.90162486     2.90914844     3.68913642     0.00008279     0.00114697    -0.00408137
Ti      0.01903436    -2.83480641     8.48542607     0.00689724    -0.00552736    -0.00287938
Ti      1.90156905    -0.96959386     3.48819375     0.00010927    -0.02492583     0.01876597
O       1.90163144     2.84886375     5.64590218    -0.00006042    -0.00231991     0.00224920
O       3.85212076     4.74877876     0.80527922     0.00648715     0.00860369    -0.00005322
O       3.77019389     0.95453337     0.76205883    -0.00702040    -0.00121793    -0.01220657
O      -1.90153181     2.82331485     5.73078610    -0.00003805     0.01424237    -0.02589796
O      -0.04908279     4.74875501     0.80530917    -0.00649435     0.00857540     0.00004474
O      -1.90153882    -0.93653348     5.66986994    -0.00001363     0.00656531    -0.00347305
O       0.03297344     0.95450678     0.76211881     0.00691910    -0.00122230    -0.01227599
O       3.65268391     2.82788251     8.85881775    -0.00083792    -0.00420273     0.00542297
O       5.70470930     4.75066615     4.09580087    -0.00005271    -0.00360752    -0.00388082
O       3.70122211    -0.92911324     8.91324809    -0.00457271     0.00826661     0.01436322
O       5.70469437     0.95033567     4.09913149    -0.00000206     0.00720835     0.02747610
O       0.15058168     2.82791585     8.85883208     0.00085155    -0.00428269     0.00539495
O       1.90147379     4.83424298     4.06977870     0.00003420     0.00128298     0.01935219
O       0.10206481    -0.92907460     8.91328083     0.00462979     0.00836894     0.01428300
O       1.90151970     0.87342990     4.03534688     0.00001208    -0.00422587     0.00148430
O       3.79095656     2.85446752     3.25911155    -0.01862996     0.00195198    -0.01942443
O       1.90164331    -2.80950647     8.06021876    -0.00001337     0.00962904     0.00356381
O       3.81814539    -0.95215698     3.18028513    -0.00775831    -0.00704405     0.00091891
O      -1.90155002     1.00029184     8.11349600    -0.00006505     0.01441978    -0.00599530
O       0.01214250     2.85440629     3.25913983     0.01855977     0.00204943    -0.01944140
O      -1.90154579    -2.87935386     8.08035137     0.00008150     0.00731351     0.00559087
O      -0.01503601    -0.95215321     3.18032362     0.00784598    -0.00707594     0.00097239
O       3.78457564     4.86668265     6.46120466    -0.00513475    -0.00497894     0.01881405
O       5.70469627     6.69909651     1.62808027    -0.00002982     0.00312209    -0.00334372
O       3.66595426     0.77901744     6.54522107    -0.01022734     0.00518052    -0.00832138
O       5.70469342     2.80745271     1.69442987    -0.00010156     0.00048568    -0.02652402
O       0.01860949     4.86668491     6.46125477     0.00507279    -0.00501802     0.01886702
O       1.90155340     6.62966839     1.52797663     0.00007379    -0.00850727    -0.01280436
O       0.13724741     0.77898675     6.54533070     0.01029264     0.00520057    -0.00840443
O       1.90153903     2.88273320     1.63074558    -0.00000591     0.00673629    -0.02057809
