# total energy = -19947.81097664 eV

CRYSTAL
PRIMVEC
        5.56967769     0.00000000     0.00000000
        2.01311389     5.57552184     0.00000000
        0.00000000     0.00000000    10.12948199
PRIMCOORD
24 1
Ti      3.21170979     3.30404899     3.75796559     0.98352729    -2.76499750     1.02736641
Ti      4.37108200     2.27147270     6.37151652    -0.98352729     2.76499750    -1.02736641
Ti      5.62363258     2.27147459     1.30673502    -2.28863079    -0.55601901     0.70131621
Ti      1.95915923     3.30404726     8.82274720     2.28863079     0.55601901    -0.70131621
Ti      2.20515298     0.51628822     1.30677563     0.98352729    -2.76499750    -1.02736641
Ti      5.37763882     5.05923358     8.82270659    -0.98352729     2.76499750     1.02736641
Ti      0.95260231     0.51628617     6.37147591     2.28863079     0.55601901     0.70131621
Ti      6.63018950     5.05923569     3.75800620    -2.28863079    -0.55601901    -0.70131621
O       2.47168983     1.96323596     5.16899713     1.24880147     1.79909102    -0.92763534
O       5.11110196     3.61228573     4.96048498    -1.24880147    -1.79909102     0.92763534
O       1.73089304     1.96325845     0.10428872     0.13644644    -0.63082605     0.95114397
O       5.85189881     3.61226329    10.02519310    -0.13644644     0.63082605    -0.95114397
O       4.10454513     0.82452485     0.10425585    -1.24880147    -1.79909102    -0.92763534
O       3.47824665     4.75099684    10.02522597     1.24880147     1.79909102     0.92763534
O       4.84534197     0.82450235     5.16903000    -0.13644644     0.63082605     0.95114397
O       2.73744976     4.75101935     4.96045211     0.13644644    -0.63082605    -0.95114397
O       1.42684922     3.39134835     2.73622580     0.38851080     1.31907797     1.21612119
O       6.15594256     2.18417334     7.39325631    -0.38851080    -1.31907797    -1.21612119
O       3.77581442     2.18412140     2.32854745     1.26386351     0.86952633     0.04946110
O       3.80697737     3.39140029     7.80093449    -1.26386351    -0.86952633    -0.04946110
O       0.42029239     0.60358747     2.32851509     0.38851080     1.31907797    -1.21612119
O       7.16249939     4.97193422     7.80096685    -0.38851080    -1.31907797     1.21612119
O       2.80042054     0.60363941     7.39328856    -1.26386351    -0.86952633     0.04946110
O       4.78237124     4.97188228     2.73619349     1.26386351     0.86952633    -0.04946110
