# total energy = -19904.28469182 eV

CRYSTAL
PRIMVEC
        6.68401715     0.00000000     0.00000000
        1.40871119     6.97294077     0.00000000
        0.00000000     0.00000000    12.02378237
PRIMCOORD
24 1
Ti      3.25743557     4.13215825     4.46073765    -0.27715757    -1.60070257     0.62959321
Ti      4.83529244     2.84078270     7.56304519     0.27715757     1.60070257    -0.62959321
Ti      6.33844351     2.84078520     1.55110573     0.27963354    -0.12443527    -0.37795153
Ti      1.75428453     4.13215602    10.47267726    -0.27963354     0.12443527     0.37795153
Ti      2.55308014     0.64568812     1.55115394    -0.27715757    -1.60070257    -0.62959321
Ti      5.53964789     6.32725303    10.47262904     0.27715757     1.60070257     0.62959321
Ti      1.04992898     0.64568542     7.56299698    -0.27963354     0.12443527    -0.37795153
Ti      7.04279905     6.32725572     4.46078587     0.27963354    -0.12443527     0.37795153
O       2.61156467     2.45529102     6.13564429     1.71576180     1.84806284    -0.48054476
O       5.48116335     4.51764993     5.88813855    -1.71576180    -1.84806284     0.48054476
O       1.72255081     2.45531910     0.12379160    -0.92721856     0.43325675     0.69485014
O       6.37017728     4.51762191    11.89999091     0.92721856    -0.43325675    -0.69485014
O       4.77680789     1.03117959     0.12375256    -1.71576180    -1.84806284    -0.48054476
O       3.31592012     5.94176135    11.90002994     1.71576180     1.84806284     0.48054476
O       5.66582183     1.03115157     6.13568332     0.92721856    -0.43325675     0.69485014
O       2.42690613     5.94178944     5.88809952    -0.92721856     0.43325675    -0.69485014
O       1.09970373     4.24133777     3.24792370     0.50598583     1.19936351     1.42728674
O       6.99302428     2.73160317     8.77585914    -0.50598583    -1.19936351    -1.42728674
O       4.13670753     2.73153804     2.76400597     0.54444209     1.43905212     0.67117979
O       3.95602048     4.24140290     9.25977667    -0.54444209    -1.43905212    -0.67117979
O       0.39534828     0.75486744     2.76396755     0.50598583     1.19936351    -1.42728674
O       7.69737974     6.21807357     9.25981509    -0.50598583    -1.19936351     1.42728674
O       3.25166502     0.75493250     8.77589749    -0.54444209    -1.43905212     0.67117979
O       4.84106299     6.21800844     3.24788529     0.54444209     1.43905212    -0.67117979
