# total energy = -19515.21215316 eV

CRYSTAL
PRIMVEC
        5.17600016     0.00000000     0.00000000
        0.00000000     5.50899976     0.00000000
        0.00000000     0.00000000     9.26300011
PRIMCOORD
23 1
Ti      2.03091101     3.22066900     3.34880202    -3.48038023    -2.25193856     1.77448042
Ti      3.28216098     2.40738501     5.97737100    -0.05694481    -0.95730202    -3.00795656
Ti      4.26406800     2.19323703     1.42492701     1.16053803    -1.03025016     1.48833967
Ti      0.95119399     3.38711202     7.81786001    -2.72952192     0.42508527    -0.11428069
Ti      1.96482698     0.01043098     1.45020099    -1.39229067     3.64104030    -0.50245828
Ti      3.23490302     5.21830301     7.94100601     0.88550960     0.26518574     1.47129839
Ti      0.70590901     0.60960701     5.88794301    -1.40327520     0.57463149    -3.56494538
Ti      4.44581498     4.83845900     3.39706801     3.61424553     2.15356761     2.36693119
O       1.65714798     2.08158602     4.89155098    -0.13643744    -0.97888619     0.47587049
O       3.45677101     3.53533298     4.42498397     2.45300919     1.18220987     1.10388247
O       0.20134797     2.69075402     0.05031899    -0.00523271    -0.06255342    -0.88675067
O       3.40865599     0.94896499     0.37707102    -1.45276638    -2.13005152    -2.70220883
O       1.55725302     4.83116800     9.00076198     0.82785310    -0.04663006     0.29671724
O       4.31377600     0.81066499     4.77435002     0.06666642    -0.98734743    -0.23317086
O       1.06689198     4.80802501     4.22235899    -0.14765414     0.04560624     0.41611983
O       0.23739601     3.06822902     2.57894898     0.41015667     1.69186210     0.73194886
O       4.98611099     2.18940700     6.67258603     0.79031884    -0.37749336     1.31621427
O       2.69849700     1.64297201     2.52534999    -0.43522211    -0.46302577    -0.69926627
O       2.49058400     3.86221498     6.79741402     0.13271345    -0.25653294     0.92211415
O       0.07370100     0.58901000     2.06352700     1.01496263    -0.95691841    -0.58587261
O       4.88353601     4.74909398     6.97743599     1.03840956     0.28152767     1.42624982
O       2.48512501     0.86599598     6.87483699    -0.83400678     0.88719161     0.29792797
O       3.13460001     4.27244699     2.13561502    -0.32065036    -0.64897805    -1.79118462
