# total energy = -19961.07821309 eV

CRYSTAL
PRIMVEC
        7.60600008     0.00000000     0.00000000
        0.00000000     7.60600008     0.00000000
       -1.89786986    -1.89786986     4.85670466
PRIMCOORD
24 1
Ti      3.88373101     6.68755798     1.16882501    -0.72114071    -1.39192712     0.19179922
Ti      3.82893899     2.75186299     1.16273402    -0.71660451     1.56652129     1.35833847
Ti     -0.03268701     6.61915399     1.20733202     0.52694907     1.03120044    -0.68811462
Ti     -0.07768899     2.89412399     1.29049001     1.12924513    -1.00778282     0.10331905
Ti      5.68230224     2.81061225     3.70395484     0.23027220     0.61755298    -0.43455105
Ti      5.69802225    -0.91954279     3.63015583     0.06939847    -0.52291398     1.15115119
Ti      1.98522121     2.82798323     3.68725284    -0.74417652    -0.14625083    -1.65241725
Ti      1.96022324    -0.94951676     3.64979582    -0.10325143    -0.12023768    -2.35970202
O       3.88870199     4.76902798     0.67276802    -0.13408102    -1.27407362     2.65722788
O       3.85983098     0.93546398     0.68582398    -0.02016260    -0.33961380     0.58697124
O      -0.23674702     4.73138401     0.81741698     0.69648408     0.82819917     0.02451959
O      -0.06325102     1.01357298     0.76128699     0.26013557    -0.78769426    -0.03579080
O       5.47399024     4.78254322     3.98768581     0.48369153     0.01115088     0.79531449
O       5.64295823     0.97910021     4.06876683     0.48564454    -0.08951890     0.31789414
O       2.03091323     4.63060622     4.05922581    -0.03199379     3.26889971    -0.76188063
O       1.83920120     0.88227024     4.07742083    -0.14059414    -0.05813395    -0.52617029
O       3.77901223     2.73902822     3.10953881     0.30216027    -0.12563032     0.61564548
O       3.89695525    -0.69523778     3.11822981    -2.08057293    -0.71427329     0.41638671
O      -0.08228680     2.95004723     3.33414879     0.50638487    -0.21197725    -0.28572449
O      -0.06242979    -1.03205979     3.14770684     1.47164369     0.02979755     0.50193403
O       5.71648799     6.72323702     1.56261502    -0.22129442     0.03237663     0.05146296
O       5.71604697     2.79677702     1.71608197    -1.33555180    -0.10241093    -0.83207126
O       1.92258699     6.74860498     1.59141898    -0.14258932    -0.56906736     0.29374273
O       1.84700900     2.83042502     1.73797002     0.23000429     0.07580798    -1.48928506
