# total energy = -19072.59707423 eV

CRYSTAL
PRIMVEC
        5.17600016     0.00000000     0.00000000
        0.00000000     5.50899976     0.00000000
        0.00000000     0.00000000     9.26300011
PRIMCOORD
22 1
Ti      1.86853000     3.43096198     3.23634402    -1.12269652     0.10342523     1.01808318
Ti      3.71977300     2.51415800     6.11691001     0.36808955    -0.71276662     0.23742012
Ti      4.43773498     2.17972703     1.57555298    -0.20292156     2.73298469    -2.03722926
Ti      1.18973302     2.80428599     7.92514598    -0.20255081     1.09741254    -1.36094814
Ti      1.85336299     0.49917401     1.46157402    -0.70208960     1.56032518    -0.82802742
Ti      3.00809199     0.04671302     7.71520602     2.26436394    -1.51518277     0.40422796
Ti      0.54213400     0.04701502     6.26472901    -0.66522537    -1.28844481    -0.79521191
Ti      4.32336998     5.03895701     3.60150400     0.20883459    -0.07251953     0.69396208
O       3.26446699     3.32254700     4.45206801     0.78414870     0.87972076     1.61435874
O       0.70158500     2.09205199     0.28563602     0.46543978     0.61592033    -0.33736074
O       0.13153002     3.45376602     6.37457499     0.54140074    -0.00231939     0.34919553
O       3.07885198     0.73437398     0.10505301     0.65347671     0.71645590     1.20967260
O       1.32097501     4.93858701     7.93636100    -3.31233929    -1.51148243     1.27460224
O       4.24877700     0.82241400     5.18060802    -0.52179787    -0.92517531    -2.25560676
O       0.86053900     4.79503101     4.28649501     1.15141087     0.91242212     2.07420842
O       0.13180800     3.68722601     2.47890802    -1.45028835    -1.90083373    -1.75052878
O       4.60547797     1.05972099     7.41127201     0.41692536     1.92067957     0.38624874
O       2.74282898     1.92783601     2.40461598    -1.07608215    -1.06789550     0.11214925
O       3.01244601     3.52642598     7.61641302     1.07812798    -0.67812023     0.14013212
O       5.16684598     0.76013798     2.14218798     0.74735620    -2.89694528     2.26551271
O       2.01525598     1.36748202     6.79483602    -0.37880771     1.24385980    -1.58872174
O       2.78182501     4.62239302     2.25501201     0.95522534     0.78847973    -0.82613920
