# total energy = -4938.05920578 eV

CRYSTAL
PRIMVEC
        6.03844880     0.00000000     0.00000000
       -0.00000783     2.29044578     0.00000000
       -3.01926061    -1.14533161     6.66427700
PRIMCOORD
6 1
Ti     -0.00025801     1.71789916     1.66606896    -0.02864313    -0.02003713    54.03271045
Ti      3.01943844    -0.57278528     4.99820752     0.02864313     0.02003713   -54.03271045
O       0.00006411     0.57259322     1.08555618     0.02786923     0.01954373   -49.87611982
O       3.01911614     0.57252061     5.57872036    -0.02786923    -0.01954373    49.87611982
O      -0.00002618    -0.57265630     4.41769468    -0.00142439    -0.00009667    -1.14011910
O       3.01920631     1.71777007     2.24658186     0.00142439     0.00009667     1.14011910
