# total energy = -19947.00027174 eV

CRYSTAL
PRIMVEC
        5.43660555     0.00000000     0.00000000
        2.22548407     5.34108986     0.00000000
        0.00000000     0.00000000     9.93891965
PRIMCOORD
24 1
Ti      3.28932787     3.16512500     3.68726830     1.72908937    -3.29131357     1.10805691
Ti      4.37276184     2.17596500     6.25165146    -1.72908937     3.29131357    -1.10805691
Ti      5.59538620     2.17596682     1.28215185    -3.80452884    -0.17833898     1.07243144
Ti      2.06670355     3.16512340     8.65676797     3.80452884     0.17833898    -1.07243144
Ti      2.17658594     0.49458005     1.28219169     1.72908937    -3.29131357    -1.10805691
Ti      5.48550380     4.84651011     8.65672813    -1.72908937     3.29131357     1.10805691
Ti      0.95396150     0.49457809     6.25161156     3.80452884     0.17833898     1.07243144
Ti      6.70812824     4.84651208     3.68730814    -3.80452884    -0.17833898    -1.07243144
O       2.50435074     1.88068859     5.07175464     0.90062846     1.62774596    -1.07216379
O       5.15773891     3.46040143     4.86716512    -0.90062846    -1.62774596     1.07216379
O       1.78125437     1.88071017     0.10232675     0.62517425    -0.79406185     0.65730508
O       5.88083542     3.46037993     9.83659268    -0.62517425     0.79406185    -0.65730508
O       4.04499696     0.78985637     0.10229448    -0.90062846    -1.62774596    -1.07216379
O       3.61709275     4.55123364     9.83662495     0.90062846     1.62774596     1.07216379
O       4.76809340     0.78983483     5.07178685    -0.62517425     0.79406185     0.65730508
O       2.89399621     4.55125525     4.86713286     0.62517425    -0.79406185    -0.65730508
O       1.55119005     3.24875378     2.68475017     0.41660834     0.84742486     0.78565203
O       6.11089961     2.09233624     7.25416959    -0.41660834    -0.84742486    -0.78565203
O       3.78763580     2.09228653     2.28474132     1.55059124     0.34720447    -0.50624500
O       3.87445385     3.24880348     7.65417827    -1.55059124    -0.34720447     0.50624500
O       0.43844809     0.57820867     2.28470955     0.41660834     0.84742486    -0.78565203
O       7.22364162     4.76288134     7.65421000    -0.41660834    -0.84742486     0.78565203
O       2.76171190     0.57825843     7.25420126    -1.55059124    -0.34720447    -0.50624500
O       4.90037775     4.76283159     2.68471845     1.55059124     0.34720447     0.50624500
