# total energy = -19958.90923393 eV

CRYSTAL
PRIMVEC
        7.60600008     0.00000000     0.00000000
        0.00000000     7.60600008     0.00000000
       -1.89786986    -1.89786986     4.85670466
PRIMCOORD
24 1
Ti      3.82633099     6.76650800     1.27609099    -1.27381985     0.24969972     0.76412803
Ti      3.72281598     3.01019499     1.18122702     2.06307991    -0.19877283     0.62301684
Ti      0.02387002     6.44785900     1.11001601     1.05555471     1.12113021     2.22674071
Ti      0.15940502     2.78175801     1.04557101    -0.86209789    -0.82422116     1.62395024
Ti      5.73892225     2.82646423     3.53019880    -0.18185651    -0.40251561    -1.38026408
Ti      5.72525021    -1.14294978     3.58416779    -0.94088989     0.93105002     0.82896922
Ti      1.89033322     3.00790921     3.77829381     0.37893472     1.29159338    -0.71501608
Ti      1.69030623    -0.86238678     3.69189282     2.09502074    -0.66241104    -0.07182662
O       3.61819399     4.86995500     0.88245699     0.77894505     0.21909072     0.20200214
O       3.67531698     1.07110402     0.85682301    -0.06184174    -0.08186344     0.04661643
O      -0.13925400     4.70595900     0.59811301     0.73747134    -2.07222918     1.15067091
O       0.42843799     0.80580497     0.64335100    -1.19120693     1.33013089     1.23306528
O       5.74219823     4.66624324     4.15169679    -0.37091211     0.11807744    -2.79168222
O       5.89480220     0.86326622     4.03862981    -0.10214842     0.30987641    -1.17994447
O       1.89663122     4.95001925     4.25372179    -0.30629538    -1.09062894    -0.43516014
O       1.84171622     1.23558221     4.14602083    -0.61914398    -3.53560729    -0.47112372
O       3.71277521     3.09422522     3.50763484     1.92266677    -0.47355701    -1.20700020
O       3.63477221    -0.94766279     3.41712981     1.64203847     0.58235405    -1.14523482
O       0.01022323     3.00065620     3.06776980    -0.36650035    -0.08693546     0.51724110
O      -0.05137179     6.24773321     3.17342882     0.15158176     1.16760188    -0.15879499
O       5.70140300     6.50340600     1.61545903    -0.62759777     0.70861223     0.25227185
O       5.72851899     2.82503201     1.52327100    -0.40794706    -0.27346109     0.72427874
O       1.86732602     6.31825698     1.66988200    -0.57735274     1.47600454     0.56576966
O       2.05855200     2.84276299     1.80950298    -2.93568282     0.19698206    -1.20267329
