# total energy = -4936.85041461 eV

CRYSTAL
PRIMVEC
        6.01087598     0.00000000     0.00000000
       -0.00000780     2.27998712     0.00000000
       -3.00547403    -1.14010178     6.63384651
PRIMCOORD
6 1
Ti     -0.00025683     1.71005487     1.65846134    -0.03022230    -0.02116507    55.43315256
Ti      3.00565105    -0.57016982     4.97538465     0.03022230     0.02116507   -55.43315256
O       0.00006381     0.56997864     1.08059930     0.02872669     0.02000036   -51.19847492
O       3.00533023     0.56990636     5.55324675    -0.02872669    -0.02000036    51.19847492
O      -0.00002606    -0.57004144     4.39752255    -0.00136731     0.00004499    -1.12487759
O       3.00541998     1.70992637     2.23632349     0.00136731    -0.00004499     1.12487759
