# total energy = -19515.75305911 eV

CRYSTAL
PRIMVEC
        5.17600016     0.00000000     0.00000000
        0.00000000     5.50899976     0.00000000
        0.00000000     0.00000000     9.26300011
PRIMCOORD
23 1
Ti      2.04366598     3.18243198     3.36915000    -1.23131230    -1.40775638     1.60211282
Ti      3.26597298     2.22289699     5.89491402     0.13571727     1.17657015    -1.99750441
Ti      4.26154499     2.20478299     1.46821699     0.52379330    -0.64878573     1.01853467
Ti      0.88266998     3.34563199     7.91570001    -1.20055136     1.67023011    -1.57401194
Ti      1.92468598     5.47180802     1.44309901    -0.67808603     1.32789814    -1.01623456
Ti      3.38749398     5.36618599     7.91087698     0.39008972    -0.97388719     1.39694360
Ti      0.63127602     0.58071901     5.77866701     0.25894258     0.75878399    -2.42201659
Ti      4.56100798     4.83205601     3.36952598     1.69592367     0.76796180     2.40606288
O       1.51141198     2.09686300     4.82551601     1.22755720    -1.08430711     0.81379482
O       3.41291100     3.59914398     4.49250202     1.98184485     0.54644576     1.32640922
O       4.91579000     3.18761098     0.08340701     0.83675221     0.54427420    -0.39819178
O       3.55401199     1.05554399     0.06457799     0.20480053    -0.99674636    -0.48060621
O       1.76301502     4.91640898     8.81981601    -0.64996252    -0.77072651     2.89576514
O       4.23725602     0.86242900     4.76072101    -0.40065258    -0.93500129    -0.25297196
O       1.10432598     4.87748699     4.44755899    -0.32019039    -0.27939031    -0.35044663
O       0.30238702     3.13819599     2.87765202    -2.64851260     0.06455425    -2.39445229
O       4.97056799     2.19779599     6.72824298     0.45618869     0.12119825     1.43334324
O       2.70968799     1.43680900     2.28270000    -1.53702198     1.46591578     0.96815645
O       2.57114197     3.60482501     7.00817902    -0.03722213    -0.67678865     0.85987697
O       5.14187198     0.65291000     2.18115998     2.04559897    -0.85181708    -1.43083590
O       5.02342502     4.87943902     7.02799501     0.36794557    -0.91459341     1.24752106
O       2.37437398     0.81277498     6.87402100    -1.14574647     1.26176883    -1.29407115
O       3.17626600     4.18917899     2.17737298    -0.27589670    -0.16580125    -2.35717771
