# total energy = -4989.07853560 eV

CRYSTAL
PRIMVEC
        4.04265844     0.00000000     0.00000000
        0.60299798     3.99743427     0.00000000
       -2.32286464    -1.99874848     5.17398647
PRIMCOORD
6 1
Ti      0.45210147     2.99822849     1.29349634     0.00016738    -0.00016738     0.00000000
Ti      1.87069073    -0.99954234     3.88048957    -0.00016738     0.00016738     0.00000000
O       0.15079201     0.99935259     0.84279998    -0.00055742    -0.00128632    -0.87455052
O       2.17200001     0.99933341     4.33118593     0.00055742     0.00128632     0.87455052
O      -0.15076728    -0.99933130     3.42979322    -0.00128632    -0.00055742    -0.87455052
O       2.47355924     2.99801730     1.74419269     0.00128632     0.00055742     0.87455052
