# total energy = -4908.66490277 eV

CRYSTAL
PRIMVEC
        5.00494295     0.00000000     0.00000000
       -0.00000654     2.14497569     0.00000000
       -2.50250018    -1.07256544     5.43147980
PRIMCOORD
6 1
Ti     -0.00021386     1.60879837     1.35786990    -0.05015016    -0.03329683    82.44267687
Ti      2.50264984    -0.53638808     4.07360980     0.05015016     0.03329683   -82.44267687
O       0.00005318     0.53623078     0.88474367     0.04993701     0.03474487   -73.97196585
O       2.50238265     0.53617947     4.54673608    -0.04993701    -0.03474487    73.97196585
O      -0.00002092    -0.53626960     3.60048357    -0.00018743    -0.00149818     0.17144971
O       2.50245671     1.60867980     1.83099618     0.00018743     0.00149818    -0.17144971
