# total energy = -4985.82617661 eV

CRYSTAL
PRIMVEC
        3.53276331     0.00000000     0.00000000
        1.19971863     3.32281384     0.00000000
       -2.36627320    -1.66142955     4.58140693
PRIMCOORD
6 1
Ti      0.89968712     2.49223783     1.14535178     0.00087598    -0.00087598    -0.00000000
Ti      1.46652101    -0.83085397     3.43605525    -0.00087598     0.00087598     0.00000000
O       0.29996646     0.83069888     0.74627380     0.00049931     0.00112769    -0.55462572
O       2.06624150     0.83068486     3.83513333    -0.00049931    -0.00112769     0.55462572
O      -0.29993781    -0.83067881     3.03697727     0.00112769     0.00049931    -0.55462572
O       2.66614571     2.49206251     1.54442986    -0.00112769    -0.00049931     0.55462572
