# total energy = -19960.86836302 eV

CRYSTAL
PRIMVEC
        5.93400000     0.00000000     0.00000000
        0.00000000     9.29699974     0.00000000
        0.00000000     0.00000000     4.64899994
PRIMCOORD
24 1
Ti      4.41115499     7.01557300     2.21334502     0.63667017     0.38085431     0.81569538
Ti      4.44890601     2.30022698     2.27062999     0.12865908     0.24612151     0.75385647
Ti      1.47598399     6.92895298     2.34083901    -0.64643651     0.48630480     0.77509533
Ti      1.50259901     2.33226099     2.39387199    -0.10787196    -0.76084961    -0.33143075
Ti      2.94363497     4.66968601     4.62961100     1.93639441    -0.44925031    -0.23927286
Ti      2.94278998     9.29646602     0.07331100     0.07410668     0.12828267    -0.98812982
Ti      0.05884102     4.61602501     4.64027302    -2.08188985    -0.33022927    -0.48111657
Ti      0.00524901     0.00033698     4.63898802    -0.39041625    -0.21550249    -0.56455173
O       4.40463399     5.54102298     0.82071603     0.22283888     0.54890219     0.69023810
O       4.47035500     0.88043601     0.84637303     0.27038091     0.61231564     0.93401322
O       1.45665002     5.49774501     0.85507000     0.26615298     1.09677028     0.68017608
O       1.45209899     0.93014300     1.00640401     0.26962603    -0.58670848    -0.85964558
O       4.43638102     8.33856799     3.69181900     0.56237940     0.34430864     0.58684372
O       4.44629601     3.79705601     3.67793202    -0.15754543    -0.32569384     0.42769186
O       1.60368901     8.33898402     3.73837702    -1.20854132     0.39507123     0.26427068
O       1.45195601     3.67125898     3.77560099     0.38172206     0.47358015     0.16663531
O       2.96181899     6.10872602     3.19957901    -0.36515746    -0.61787489    -0.17318726
O       3.04382998     1.33794398     3.32590002    -0.40325634     1.36850745    -1.34034666
O       5.91977402     6.07269302     3.21402698     0.49873532     0.10616706    -0.47294483
O       5.90013499     1.49689999     3.31164902     0.31907839    -0.53948835    -0.21516928
O       2.94146302     7.99291898     1.47814801     0.08532672    -1.18291461    -0.01939255
O       2.97514600     3.34265102     1.55058200    -0.17697090    -0.80786122    -0.57694162
O       5.91460899     7.94448799     1.38253002     0.24950791    -0.87629733     0.37456616
O       0.05249502     3.17176699     1.42288301    -0.36349267     0.50548524    -0.20695254
