# total energy = -19960.38981633 eV

CRYSTAL
PRIMVEC
        7.60600008     0.00000000     0.00000000
        0.00000000     7.60600008     0.00000000
       -1.89786986    -1.89786986     4.85670466
PRIMCOORD
24 1
Ti      3.80306100     6.82678902     1.09897399     2.25959454    -0.79601898    -0.22735477
Ti      3.81868602     2.81492398     1.16718700    -1.25336209     1.00311396     0.11892668
Ti     -0.02290501     6.61872700     1.23756302    -1.82470642     0.14380185    -0.20672474
Ti     -0.13207597     2.74041398     1.35536301     0.37629034     0.27201356    -1.19534564
Ti      5.60140025     2.81390923     3.76137279     0.14369721    -0.25000002    -0.08324618
Ti      5.66147324    -0.94508977     3.62618679     1.20299262     0.22411775     0.08044933
Ti      1.95850522     2.82122125     3.67376781     0.36867088    -0.21089636    -0.33489377
Ti      2.03345021    -0.93811178     3.44396381    -1.40052232     0.39054454     1.98080226
O       4.05079401     4.75351298     0.89999202    -1.22589859     1.20949031    -1.45466437
O       4.07180298     1.02060501     0.63482998    -1.15847498    -0.99142495     0.34396745
O       7.28251202     4.71692302     0.81811200     0.90304864     0.51584473     0.89367182
O      -0.07418599     0.91980002     0.70273098     0.14670720    -0.15888704     1.64698656
O       5.48854420     4.72550321     4.07547679     0.67331406    -0.03809271    -0.10133621
O       5.83053622     0.91307524     4.25204382    -0.02324072     0.37281627    -1.00476203
O       2.22941920     4.88967124     3.90608081    -1.31899158    -2.13690788     1.11170660
O       1.82263425     0.97688925     4.02159279    -0.24059210     0.05807096     0.21181424
O       3.83280225     2.54463321     3.31436782    -1.17058797     0.42958907    -0.30494657
O       3.82034822    -0.88348079     3.15134779     0.29203809     0.72050385    -0.75824380
O      -0.01038479     2.88426224     3.21185481     0.03258489     0.24357046     1.06471118
O      -0.05301975    -1.01628179     3.16518381     0.90936687    -0.40015790     0.20700833
O       5.70170500    -0.62788601     1.68792302    -0.47128647    -0.84340237    -0.48618345
O       5.54512701     2.84560902     1.73968402     2.68978834    -0.40811367    -0.05735002
O       1.91215299     6.71478400     1.58831901     0.29460019     0.13461556    -1.68412513
O       1.94192498     2.70977398     1.68594501    -0.20503013     0.51580874     0.23913171
