# total energy = -19927.02429715 eV

CRYSTAL
PRIMVEC
        6.14917035     0.00000000     0.00000000
        2.51717373     6.04113561     0.00000000
        0.00000000     0.00000000    11.24159359
PRIMCOORD
24 1
Ti      3.72045337     3.57997148     4.17055104     0.20147429    -2.54740136     0.72320145
Ti      4.94589081     2.46116430     7.07104267    -0.20147429     2.54740136    -0.72320145
Ti      6.32876206     2.46116635     1.45020087    -0.93854736    -1.04368187     0.37145333
Ti      2.33758218     3.57996967     9.79139290     0.93854736     1.04368187    -0.37145333
Ti      2.46186662     0.55940365     1.45024594     0.20147429    -2.54740136    -0.72320145
Ti      6.20447760     5.48173231     9.79134783    -0.20147429     2.54740136     0.72320145
Ti      1.07899528     0.55940143     7.07099754     0.93854736     1.04368187     0.37145333
Ti      7.58734894     5.48173454     4.17059610    -0.93854736    -1.04368187    -0.37145333
O       2.83259089     2.12718661     5.73649918     1.79301113     2.14098925    -0.89517541
O       5.83375323     3.91394919     5.50509453    -1.79301113    -2.14098925     0.89517541
O       2.01471974     2.12721102     0.11573851    -0.08936129    -0.80366390     1.51041337
O       6.65162453     3.91392487    11.12585483     0.08936129     0.80366390    -1.51041337
O       4.57516646     0.89338123     0.11570201    -1.79301113    -2.14098925    -0.89517541
O       4.09117772     5.14775455    11.12589133     1.79301113     2.14098925     0.89517541
O       5.39303768     0.89335687     5.73653561     0.08936129     0.80366390     1.51041337
O       3.27330639     5.14777900     5.50505804    -0.08936129    -0.80366390    -1.51041337
O       1.75450136     3.67456131     3.03663490     0.61508498     2.53509297     2.40111325
O       6.91184276     2.36657448     8.20495881    -0.61508498    -2.53509297    -2.40111325
O       4.28407351     2.36651826     2.58419771     0.87248104     1.88798978     1.24263133
O       4.38227062     3.67461753     8.65739582    -0.87248104    -1.88798978    -1.24263133
O       0.49591458     0.65399330     2.58416177     0.61508498     2.53509297    -2.40111325
O       8.17042960     5.38714249     8.65743170    -0.61508498    -2.53509297     2.40111325
O       3.12368385     0.65404958     8.20499463    -0.87248104    -1.88798978     1.24263133
O       5.54266028     5.38708622     3.03659902     0.87248104     1.88798978    -1.24263133
