# total energy = -39040.38365947 eV

CRYSTAL
PRIMVEC
        7.60629642    -0.00000847    -0.00005503
       -0.00000847     7.60629642    -0.00005503
       -3.80314186    -3.80314186     9.70738094
PRIMCOORD
46 1
Ti      1.92339062     4.75391334     6.18908706     0.00519877    -0.00024888    -0.02364567
Ti      3.80331958     6.62382238     1.17617050    -0.00384766    -0.00395847    -0.00502034
Ti      1.81819717     0.95070142     5.94506164    -0.04249289    -0.00025711    -0.04571783
Ti      3.80337440     2.88414465     1.17617955    -0.00374481     0.00407057    -0.00497869
Ti     -1.91747597     4.75407554     6.09917654     0.00828153     0.00011184    -0.00975374
Ti     -0.00340632     6.67064140     1.25560003     0.00424001     0.01775399    -0.01683816
Ti     -1.82765317     0.95093035     6.01786126     0.04387589    -0.00010362     0.01009364
Ti     -0.00336011     2.83732085     1.25567392     0.00412611    -0.01774293    -0.01703716
Ti      3.80460821     0.95081563     8.63690929    -0.03261574     0.00004705     0.03989351
Ti      5.67763769     2.87633412     3.63922898     0.00396670    -0.00539958    -0.01493400
Ti      3.82121390    -2.85232500     8.55252159    -0.00756085    -0.00002365    -0.02687498
Ti      5.67764643    -0.97493878     3.63928080     0.00392839     0.00554716    -0.01522659
Ti      0.03811120     0.95077004     8.38757565     0.00109169     0.00000026     0.04317424
Ti      1.91659556     2.80985108     3.60373821    -0.00121202     0.00005862    -0.01847493
Ti     -0.01478520    -2.85241764     8.51384591     0.00683528    -0.00004037     0.00941795
Ti      1.91656688    -0.90874368     3.60373631    -0.00118168     0.00014372    -0.01828903
O       1.99997630     2.90707559     5.60192896    -0.00237261     0.00555384     0.01655431
O       3.85209426     4.75395723     0.72007468     0.01243952     0.00009462    -0.00408806
O       1.99996909    -1.00556625     5.60210539    -0.00232556    -0.00593102     0.01637433
O       3.77346675     0.95079574     0.78101898    -0.01865310     0.00006119     0.01734853
O      -2.04244852     2.82866145     5.67454266    -0.00776371    -0.01714387    -0.00734282
O      -0.04895937     4.75394603     0.84528052    -0.00341700     0.00009693     0.00725900
O      -2.04242996    -0.92699585     5.67455951    -0.00779199     0.01716521    -0.00742509
O       0.02663669     0.95082070     0.87541145     0.01736189     0.00000566     0.01050656
O       3.79692451     2.86632395     8.97174979     0.00119685     0.00366279    -0.00302388
O       5.74670662     4.75392101     4.11656277     0.00401452     0.00008562    -0.00162211
O       3.79691638    -0.96468723     8.97177738     0.00119762    -0.00362269    -0.00300999
O       5.64616180     0.95080834     4.02309491    -0.01542303    -0.00004834     0.00650155
O       0.01439473     2.82866352     8.86076944    -0.00119453    -0.00348950     0.00826404
O       0.01445357    -0.92703407     8.86079703    -0.00121819     0.00363554     0.00821648
O       1.97417063     0.95062451     3.99410763     0.02106197    -0.00006531     0.00370445
O       2.02854843     0.95089969     7.94788936     0.01520345    -0.00008382     0.01569685
O       3.78449358     3.02571491     3.21525179    -0.01251228    -0.00574050    -0.00363940
O       1.90240449    -2.85237117     8.13282318    -0.00522834     0.00008125    -0.00200752
O       3.78450621    -1.12417308     3.21524955    -0.01261589     0.00554201    -0.00352241
O      -2.00849856     0.95089380     7.99331759     0.01081818     0.00001568     0.00085952
O       0.01697999     2.92813113     3.27331736     0.01267143    -0.01794579     0.01414853
O      -1.90222700    -2.85228929     8.11043337    -0.00619353     0.00007533    -0.01070582
O       0.01695174    -1.02665421     3.27332616     0.01277916     0.01787714     0.01419507
O       3.80968150     4.75397976     6.55416833    -0.01271951    -0.00006505    -0.02842304
O       5.69348540     6.68053478     1.66332104     0.00620870     0.01129075     0.01368830
O       5.69349015     2.82732106     1.66334348     0.00627529    -0.01107606     0.01375386
O      -0.01204762     4.75394677     6.48725824     0.00344425    -0.00000514    -0.01473037
O       1.90703662     6.59043834     1.61512678    -0.00615934    -0.00681317     0.01649852
O       0.00694403     0.95077681     6.39622003     0.00823499     0.00008228     0.00382477
O       1.90706536     2.91746897     1.61518838    -0.00620896     0.00674606     0.01635788
