# total energy = -19960.43493133 eV

CRYSTAL
PRIMVEC
        7.60600008     0.00000000     0.00000000
        0.00000000     7.60600008     0.00000000
       -1.89786986    -1.89786986     4.85670466
PRIMCOORD
24 1
Ti      3.94540201     6.57357199     1.20878800    -2.24343721     0.29419190    -0.37022382
Ti      3.79542000     2.73972800     1.21943500    -0.10672833     0.06348519    -1.41980329
Ti     -0.01769399     6.67475401     1.12188202     2.14306156     1.24599485     1.59328982
Ti     -0.05688999     2.96268498     1.26497599    -0.05820388    -0.72021049     0.41844154
Ti      5.61873821     2.81796025     3.62795980     2.39189096     0.63672956     0.53849899
Ti      5.69385122    -0.89274377     3.64794783     0.94059936    -0.91034081     0.26820575
Ti      1.96882322     2.78332120     3.63477581    -1.99511149     0.39432047     0.57832873
Ti      1.98270222    -0.96906177     3.66482181    -1.14384308    -0.18145259    -1.97946709
O       3.83844201     4.62202900     0.77990900     0.27053595     0.89066775    -0.10599634
O       3.84796402     0.88101101     0.79076798     0.10932052     1.13062478     0.02829654
O      -0.16807098     4.84383200     0.88314100     0.37197860    -3.04489098    -1.20238764
O      -0.11341798     0.92028200     0.89220099     0.46687394     2.03179266    -1.38647124
O       5.47521121     4.80510025     4.06344383     0.35835149    -0.19479610    -0.76688451
O       5.57983125     0.95607724     3.94870582     0.86861359     1.03327738     1.82316556
O       1.95080622     4.76789120     4.07773982     0.72147521    -1.35152582    -0.16041838
O       1.81827325     0.89164223     4.04805880     0.25733358     1.19355024     0.15668977
O       3.86714024     2.85646424     3.09302780    -2.72459980    -0.06312215     1.24283239
O       3.86000624    -0.58565676     3.14522484    -0.15861501    -1.56147292     0.11557730
O      -0.03938576     2.97475123     3.39646983    -0.07336003    -0.24295186    -1.13285521
O       0.08625822    -0.98579075     3.20242683    -1.37943644     0.11227575     0.33997427
O       5.74415899     6.58787401     1.55180800    -0.64278991     0.04246461     1.25771960
O       5.69670698     2.70370802     1.65321900     0.15433952     0.48821565    -0.10840109
O       1.94804000     6.74589200     1.58197798     0.15575235    -0.89027051     0.27119029
O       1.77017500     2.89548598     1.66895202     1.31599882    -0.39655579     0.00069780
