# total energy = -19938.55618981 eV

CRYSTAL
PRIMVEC
        5.33504979     0.00000000     0.00000000
        2.67207276     5.01008218     0.00000000
        0.00000000     0.00000000     9.88102304
PRIMCOORD
24 1
Ti      3.51716682     2.96897007     3.66578909     3.21603319    -4.45279520     1.05896888
Ti      4.48995588     2.04111224     6.21523406    -3.21603319     4.45279520    -1.05896888
Ti      5.68974186     2.04111403     1.27468301    -6.87639327     0.90788206     1.55766538
Ti      2.31738100     2.96896851     8.60634019     6.87639327    -0.90788206    -1.55766538
Ti      2.18113064     0.46392914     1.27472264     3.21603319    -4.45279520    -1.05896888
Ti      5.82599216     4.54615336     8.60630061    -3.21603319     4.45279520     1.05896888
Ti      0.98134457     0.46392721     6.21519442     6.87639327    -0.90788206     1.55766538
Ti      7.02577822     4.54615524     3.66582867    -6.87639327     0.90788206    -1.55766538
O       2.62945924     1.76413514     5.04221045     0.40240659     1.38822756    -1.38286783
O       5.37766352     3.24594721     4.83881270    -0.40240659    -1.38822756     1.38286783
O       1.91987221     1.76415531     0.10173067     1.69937564    -0.68380417    -0.27824489
O       6.08725061     3.24592708     9.77929215    -1.69937564     0.68380417     0.27824489
O       4.04162724     0.74090609     0.10169861    -0.40240659    -1.38822756    -1.38286783
O       3.96549551     4.26917621     9.77932422     0.40240659     1.38822756     1.38286783
O       4.75121433     0.74088596     5.04224246    -1.69937564     0.68380417    -0.27824489
O       3.25590838     4.26919640     4.83878063     1.69937564    -0.68380417     0.27824489
O       1.81914080     3.04741596     2.66911083     0.55419095    -0.27444428    -0.06543871
O       6.18798196     1.96266639     7.21191226    -0.55419095     0.27444428     0.06543871
O       3.90811205     1.96261960     2.27143212     1.91737415    -0.41195799    -1.42381909
O       4.09901071     3.04746275     7.60959082    -1.91737415     0.41195799     1.42381909
O       0.48310452     0.54237484     2.27140058     0.55419095    -0.27444428     0.06543871
O       7.52401822     4.46770746     7.60962235    -0.55419095     0.27444428    -0.06543871
O       2.76297443     0.54242163     7.21194375    -1.91737415     0.41195799    -1.42381909
O       5.24414832     4.46766067     2.66907930     1.91737415    -0.41195799     1.42381909
