# total energy = -4931.67085475 eV

CRYSTAL
PRIMVEC
        5.90058468     0.00000000     0.00000000
       -0.00000765     2.23815250     0.00000000
       -2.95032771    -1.11918248     6.51212455
PRIMCOORD
6 1
Ti     -0.00025212     1.67867771     1.62803086    -0.03403628    -0.02148415    61.24250831
Ti      2.95050149    -0.55970799     4.88409319     0.03403628     0.02148415   -61.24250831
O       0.00006264     0.55952031     1.06077179     0.03177473     0.02203822   -56.74571792
O       2.95018655     0.55944936     5.45135231    -0.03177473    -0.02203822    56.74571792
O      -0.00002558    -0.55958196     4.31683407    -0.00148610     0.00010336    -1.04303498
O       2.95027466     1.67855158     2.19529004     0.00148610    -0.00010336     1.04303498
