# total energy = -4983.17613820 eV

CRYSTAL
PRIMVEC
        4.22325790     0.00000000     0.00000000
        0.00000000     3.56311415     0.00000000
        0.00000000    -0.00008049     5.59358546
PRIMCOORD
6 1
Ti      2.11162883     1.78151677     2.79679290     0.00000000     0.00000000     0.00000000
Ti      0.00000000     0.00000000     0.00000000     0.00000000     0.00000000     0.00000000
O       2.11162883     0.69438277     1.09010748     0.00000000     0.35779331     1.88854668
O       2.11162883     2.86865083     4.50347827     0.00000000    -0.35779331    -1.88854668
O       0.00000000     1.08710193     3.88690145     0.00000000    -0.35759225     1.88847700
O       0.00000000     2.47593162     1.70668436     0.00000000     0.35759225    -1.88847700
