# total energy = -19519.57042737 eV

CRYSTAL
PRIMVEC
        5.17575250     0.00001323     0.00000000
        0.00001429     5.50856584     0.00000000
        0.00000000     0.00000000     9.26345890
PRIMCOORD
23 1
Ti      1.87907071     3.26317927     3.44171005     0.09661027     0.04077488    -0.06498054
Ti      3.29812664     2.24365112     5.82635065     0.00046126     0.01393256     0.02121855
Ti      4.47286399     2.22342061     1.21483207     0.35699678    -0.87343338     0.60713101
Ti      0.72229551     3.25787688     8.05093939     0.32910184    -0.12084524    -0.45758994
Ti      1.86958485     0.51727765     1.19982857    -0.07383980     0.22059302    -0.11726266
Ti      3.28561561     5.00559024     8.05205459    -0.50503967     0.34783311    -0.30674995
Ti      0.71327804     0.51201450     5.82435803    -0.07155203    -0.02422211     0.01590588
Ti      4.46380044     4.99945236     3.44130515    -0.08932916    -0.10024863     0.00707851
O       1.63720350     1.94035563     4.72584826    -0.07568971    -0.05212631     0.03429159
O       3.53675544     3.57031944     4.53431277    -0.04107827     0.03838478    -0.05246107
O       0.93617390     1.95313431     0.09123423    -0.44479433     0.39764053    -0.11490187
O       3.54487643     0.81681263     0.09556291     0.18041900     0.00877338    -0.03187064
O       1.64104486     4.68759196     9.17105457     0.14773204    -0.14962438     0.19550059
O       4.22690455     0.81419809     4.72672285     0.04908881     0.04962514     0.06152369
O       0.94980949     4.69333761     4.53574369     0.00195995     0.00159023     0.04419882
O       0.18165075     3.35248489     2.49127246    -0.11613523     0.19030593    -0.25254156
O       4.98849635     2.15982506     6.76643800    -0.03197554    -0.07976105     0.03696399
O       2.77460140     2.16221114     2.12471770    -0.18941967     0.17806850    -0.07515929
O       2.41158414     3.35430318     7.13979452     0.57855293     0.05901327     0.08558923
O       0.18757177     0.59961860     2.12595865    -0.09116441     0.10163832     0.00640745
O       4.98134646     4.90096937     7.15179574    -0.12011067    -0.32521845     0.52384009
O       2.40363281     0.59537888     6.76173368     0.03750341     0.08961146    -0.13417127
O       2.77690023     4.91105176     2.49985444     0.07170218    -0.01230530    -0.03196088
