# total energy = -19518.05548854 eV

CRYSTAL
PRIMVEC
        5.93400000     0.00000000     0.00000000
        0.00000000     9.29699974     0.00000000
        0.00000000     0.00000000     4.64899994
PRIMCOORD
23 1
Ti      4.51058099     7.10047600     2.23729098     0.02371484    -0.31992763     0.23580239
Ti      4.46843398     2.28282700     2.34438402     0.92622483    -0.03810273    -0.55018877
Ti      1.40857199     7.05351702     2.22885600     0.09938012    -0.58177915     0.37064806
Ti      1.47876000     2.30008098     2.43501801    -0.50508286    -0.39932229    -0.69768119
Ti      2.92632299     4.47502202     0.19588702     0.68727207     0.71985490     0.63886024
Ti      2.95823000     0.00762698     4.62342603     0.79742537    -0.27569230    -0.26106734
Ti      5.91256102     4.56554398     4.59753201    -0.58007040     0.77314412     0.52325028
Ti      0.04642297     0.00297001     0.01574101    -0.87359999     0.56795458    -0.86898614
O       4.42582002     5.63369900     0.96254601    -0.57647831    -0.85532304    -0.78342288
O       4.43951899     0.91903001     0.89329798     0.18116025    -0.14156011     0.03380822
O       1.43275598     5.57817101     0.94774201     1.04719939    -0.26969494    -0.51600208
O       1.50116600     0.85070402     0.83051099     0.07930982     0.96783789     1.16624974
O       4.47642699     8.47918001     3.62319699    -0.28495316    -0.55512118     0.42730053
O       4.43860399     3.65889000     3.75908198    -0.55772082     1.24777714     0.05149279
O       1.46182199     8.53958200     3.57431001     0.48372239    -0.86611524     0.39832291
O       1.50088702     3.59296001     3.77635898     0.29154007     1.54806487     0.17439774
O       3.04546000     1.46852402     3.19300901    -1.04178748    -0.81341610     0.64536462
O       0.03662901     6.13566400     3.25168101     0.04625673    -0.20584208    -0.13229770
O       0.00383601     1.49176898     3.31543099    -0.09601531    -0.19097776    -0.79619124
O       2.99008203     7.89201398     1.36963201    -0.27765122    -0.40933932     0.15690574
O       2.93458599     3.10770299     1.34954100     0.02375263     0.57582088     0.30736264
O       0.02977400     7.95468799     1.43829900    -0.27180196     0.25491520    -0.96621398
O       5.91886701     3.31667202     1.40545302     0.37820273    -0.73315522     0.44228519
