# total energy = -19517.56235287 eV

CRYSTAL
PRIMVEC
        7.60600008     0.00000000     0.00000000
        0.00000000     7.60600008     0.00000000
       -1.89786986    -1.89786986     4.85670466
PRIMCOORD
23 1
Ti      3.75841400     6.56388699     1.13866397     0.99293084     1.33571996     0.47435585
Ti      3.84873598     2.80700400     1.11308699    -0.80449796    -1.79003405     1.88810213
Ti      0.07412598     6.84791398     1.19256798    -1.27956833    -0.00512884     0.36595065
Ti     -0.10579899     2.98580199     1.08732500     0.89873536    -1.37934259     1.92247240
Ti      5.66805621     2.95053222     3.80236381    -0.64987999     0.27448131    -0.95026568
Ti      5.74785524    -0.94440576     3.56884382    -1.04154322     0.08939112    -0.27863749
Ti      2.08053624     2.73791520     3.75903483     0.30463059     1.12615492    -2.58229587
Ti      1.90706824    -1.03550277     3.58235080    -0.30275934    -0.55590356     0.95500654
O       3.99623298     4.60228502     0.79138500    -0.62550824     1.80487215     1.26292994
O       4.03580898     0.92093997     0.60418802    -0.21545133    -0.98370341     0.88525557
O      -0.07181999     4.90180501     0.87237600     0.92714451    -0.97769499     0.26761620
O      -0.23139498     0.97902400     0.82481498     0.34820309     0.27465948    -0.44821801
O       5.63716025     4.82273122     3.92132280     0.81867400    -0.36251694     1.16332023
O       5.61867820     0.97135824     4.16127881     0.51908124     0.17720358    -1.34972013
O       1.42390422     4.56626821     4.07775781     0.66051562     0.33932969    -0.35438479
O       1.89925922     0.94444825     4.08517783    -0.64032165    -1.43908605    -0.63201750
O       3.88381922     2.66240822     3.50419180    -1.23996715     0.69943339    -1.14019057
O       3.70361420    -1.19022076     3.07863079     0.41330242     0.01359317     0.78828381
O      -0.07322178    -0.88798779     3.19215180     1.39658005     0.22819809     0.29816117
O       5.70149402     6.60001900     1.67038900    -0.80452342     0.40217005    -0.72761989
O       5.70874899     2.80503001     1.85694398     0.86598746     0.30575776    -0.92025781
O       1.92335499    -0.58793699     1.70217800    -0.68255718    -0.54400526    -1.52803006
O       1.86437400     2.64874100     1.65778601     0.14079238     0.96645053     0.64018384
