# total energy = -19517.79999911 eV

CRYSTAL
PRIMVEC
        7.60600008     0.00000000     0.00000000
        0.00000000     7.60600008     0.00000000
       -1.89786986    -1.89786986     4.85670466
PRIMCOORD
23 1
Ti      3.71769799     6.61835700     1.11459001     1.17705686    -0.24418521     1.92389319
Ti      3.75008798     2.72438001     1.11879702     0.99755446     0.78638865     0.33047661
Ti      0.00679898     6.75616502     1.21009401    -1.17891886     0.20025070    -1.10078275
Ti      0.00047901     2.90278000     1.17254899    -0.53058256    -0.37806620     0.51813250
Ti      5.73101523     2.93764321     3.70486179    -1.44586168     0.07265683     0.91988654
Ti      5.73661324    -0.85726979     3.57696981    -1.33305758    -0.52187989    -0.25570170
Ti      2.00014522     2.80984722     3.67291584     1.19556161    -1.09865156     1.13074279
Ti      1.88622024    -1.06696480     3.55449084     1.24245650     0.98652494     0.27173922
O       3.91448398     4.69321800     0.93742300    -1.34159570    -0.74527541    -0.21392512
O       4.00602699     0.87852901     0.62311701    -0.37939675     0.39478455     0.55359703
O       0.07420901     4.76706500     1.03089899     0.67778187     0.55507978    -0.98717285
O      -0.15418802     1.07701498     0.75044399     0.24184885    -1.57031264    -0.16535799
O       5.70007625     4.81622922     4.00268979     0.57655750    -0.43449500     0.70265473
O       5.60248924     0.97522022     4.08538082     1.12370054     0.48301919    -0.48573119
O       1.61744021     4.60826224     4.09967480    -0.13424866     0.91032949    -1.46683778
O       1.94819123     0.89546422     4.08272880    -1.17957860    -0.13850589     0.52031331
O       3.79685524     2.68430923     3.67973482     0.08808963     0.95015410    -1.28964988
O       3.78290623    -0.96837177     3.17803880    -0.47027808    -0.36402052    -0.47697170
O       0.02602520    -0.97347876     3.12292483    -0.69762282     0.34330873     0.88415411
O       5.67773899     6.63059602     1.48161100     0.28273532     0.43289526     0.99658412
O       5.71564702     2.81755998     1.91264698     0.28257977     0.12321682    -1.54699272
O       1.85615800    -0.50126998     1.56168599     0.86424194    -1.32665296     0.31241178
O       1.90454501     2.62246698     1.80750899    -0.05902355     0.58343623    -1.07546174
