# total energy = -19072.10455817 eV

CRYSTAL
PRIMVEC
        5.17600016     0.00000000     0.00000000
        0.00000000     5.50899976     0.00000000
        0.00000000     0.00000000     9.26300011
PRIMCOORD
22 1
Ti      1.50032599     3.19080499     3.51207300    -1.21271422    -1.12519898     0.23327422
Ti      4.50405099     2.99181101     5.67999900    -0.61105118    -0.23392111     0.17570283
Ti      4.05297602     2.01389399     1.58514098     2.97082544    -0.15556543     0.32184361
Ti      1.35501698     3.06406503     8.14224301    -1.50019837    -1.67937733    -0.05157018
Ti      1.69512200     0.35912402     1.19911999    -0.52134252     0.54214173     0.06173504
Ti      3.31648099     5.25950401     7.86586199     0.46613089     0.49615599     0.58882887
Ti      1.36814402     0.43104202     5.93347098     0.06663402     0.21972013    -0.74046899
Ti      3.96330900     5.10231302     3.63730999    -1.03052475    -1.57962646    -0.62520227
O       3.10351598     3.39131702     4.39825999     0.73219312    -1.93470828     2.28526496
O       0.84912200     1.90285498     0.49960100    -0.32769673     0.28640737    -1.15797387
O       4.56021998     3.44232399     7.51845400     0.47173487     0.82724658     0.01377212
O       3.44545000     0.64747900     0.27914502     0.74513245     1.19875750     0.24007350
O       1.93860101     4.52406098     9.13376603    -0.72761758    -1.24311958     0.79276344
O       2.95287399     0.17489499     5.03486102     1.03813008     1.78385389    -0.56392464
O       0.31852099     4.38085599     4.68322999     0.53362006     1.13625036     1.29889403
O       4.79325202     3.42008098     2.59517699     0.36082130    -0.24920478    -1.45386322
O       0.68707602     1.86930202     4.91350999    -0.29895230     0.03442348    -0.32985929
O       2.59384500     1.48382798     2.48474500    -1.52678333     1.35658832     1.30579436
O       2.04447101     4.36847800     6.84536801    -1.00662480    -2.24340455    -0.68114693
O       4.95938299     0.68587002     2.50822502     1.40957132    -0.32100569    -0.52585147
O       2.29165701     1.31650500     7.31480400    -0.13291708     1.52063633     0.30754982
O       2.26974098     4.47722800     2.53735501     0.10162932     1.36295026    -1.49563595
