# total energy = -4974.60247669 eV

CRYSTAL
PRIMVEC
        4.89524120     0.00000000     0.00000000
        0.00000000     2.55670316     0.00000000
        0.00000000    -0.00013485     6.81787413
PRIMCOORD
6 1
Ti      2.44762037     1.27828410     3.40893706     0.00000000     0.00000000     0.00000000
Ti      0.00000000     0.00000000     0.00000000     0.00000000     0.00000000     0.00000000
O       2.44762037     0.49823750     1.32870327    -0.00000000     0.08093219     2.45503753
O       2.44762037     2.05833075     5.48917092    -0.00000000    -0.08093219    -2.45503753
O       0.00000000     0.77999363     4.73764171     0.00000000    -0.08124072     2.45358100
O       0.00000000     1.77657462     2.08023241     0.00000000     0.08124072    -2.45358100
