# total energy = -19073.33854192 eV

CRYSTAL
PRIMVEC
        5.17600016     0.00000000     0.00000000
        0.00000000     5.50899976     0.00000000
        0.00000000     0.00000000     9.26300011
PRIMCOORD
22 1
Ti      1.71810698     3.34391401     3.33898700     1.43808718     1.28813576    -0.67424917
Ti      3.88579898     2.17200601     5.89297199    -0.36118099     0.09254972    -1.53797740
Ti      4.41778399     2.23383900     1.38446300    -0.81619597    -1.33162162    -1.79097662
Ti      0.74852900     3.18930202     8.13998703    -1.36944950     0.76410952     0.35057416
Ti      1.79458701     0.61276302     1.33508197     0.27153276    -0.98069573    -1.14003014
Ti      3.11411202     5.14525602     8.01943701     0.73224222     0.28521335     0.56292242
Ti      0.86998999     0.15290899     5.97916200    -0.58320663     0.39642697    -0.35920433
Ti      4.40010598     4.84593903     3.44938100    -0.21908044     0.03113838     0.15596215
O       3.40397399     3.30043898     4.27699400     0.69963085    -0.30612568     2.05303795
O       0.91648398     2.04146698     0.39582199    -0.69981495     0.14310586    -1.91207151
O       4.27491201     3.76935299     8.75479198    -0.84916627     0.00646196     0.13831666
O       3.31653502     0.92706298     0.12415700     0.83135983     0.37956182    -0.69416032
O       1.62033000     4.79085702     9.01807100    -0.75717165    -0.16543152     1.13148224
O       4.55776100     0.74694602     4.84372199    -0.56235961     1.38887059    -0.07593936
O       1.05967803     4.85632000     4.31021702     0.37445715    -1.32697049    -0.28092912
O       0.15200400     3.55454301     2.23507399    -0.27836239     0.62663052     1.14834303
O       5.16813098     1.62693699     7.17304297     0.64844737    -0.08007755    -0.85014560
O       2.57862301     2.15164999     2.12400900     1.02532675    -0.91720051     0.80452239
O       1.67615100     4.18616099     6.77361300     1.50970657    -1.84797208     0.12192047
O       5.15310298     0.68275798     2.17572099     0.03036345     0.04043473     0.45911023
O       2.62067900     0.93694298     6.29302301    -1.02652437     0.37160348     1.76759011
O       2.72204502     4.65770602     2.29535802    -0.03864087     1.14185228     0.62190175
