# total energy = -19959.94963595 eV

CRYSTAL
PRIMVEC
        7.60600008     0.00000000     0.00000000
        0.00000000     7.60600008     0.00000000
       -1.89786986    -1.89786986     4.85670466
PRIMCOORD
24 1
Ti      3.72726102     6.53403102     1.25860200     1.03421686    -0.56698631     0.48838688
Ti      3.84019199     2.83648198     1.19750399    -2.26723946     0.70586758    -1.23725412
Ti      0.04653500     6.60986402     1.18627199    -0.44752124     2.05835216     1.17270733
Ti     -0.00738599     3.02710401     1.14691602     1.95924253    -2.30779529     0.92348352
Ti      5.75740720     2.91967023     3.58613082     1.04357491    -0.24569548    -0.60122210
Ti      5.70569024    -0.96289479     3.67049681     0.55616350     0.28689768     0.02568147
Ti      1.92102121     2.94382124     3.62594681    -0.78824370    -2.01430478    -0.57828400
Ti      1.86637122    -1.05932977     3.71751479    -0.70046132     0.97384271     0.05790898
O       3.65776602     4.67569699     0.67775800     1.03029798     0.28265382     1.75392907
O       3.53374402     0.75662599     0.81478300     0.97740600     2.49165648     0.15602154
O      -0.01156702     4.83631700     0.69595000    -0.53287033    -0.68825629    -0.20585956
O       0.06916802     1.02844000     0.79369899    -0.51775763    -1.25535778    -0.26527495
O      -1.56072776     4.72425123     4.01597679    -0.90121853     0.42298365     0.28913968
O       6.00505522     0.93905324     4.08274081    -1.45085965     0.91756792    -0.48692418
O       1.61597524     4.63947523     4.21935083     0.48086075     2.16886670    -1.34231895
O       1.69812323     0.97851425     4.07852083     1.39457870    -2.58437487     0.21361170
O       3.74353121     2.99701224     3.19888680     2.67738353    -0.69562430     0.23251420
O       3.78570521    -1.18230877     3.33815482    -0.08006367     0.46931263     0.24542089
O       0.09561423     2.74913524     3.20367283    -2.98952946     0.46231794    -1.31839328
O      -0.02517079    -0.99747880     3.16029983     0.61240178     0.05742432    -0.37251468
O       5.66163401     6.53825099     1.60636998     0.30959025     0.45965531     0.16129307
O       5.67375000     3.08150502     1.52605998     0.64426393    -0.70299720     0.77568103
O       1.92293001     6.45370202     1.68978901    -1.45399589     0.13375295     0.67938547
O       1.90979001     3.18808698     1.67866502    -0.59021958    -0.82975906    -0.76711951
