# total energy = -4990.48254078 eV

CRYSTAL
PRIMVEC
        3.76981997     0.00000000     0.00000000
        0.37603315     3.75101875     0.00000000
       -2.07295999    -1.87553963     4.81716940
PRIMCOORD
6 1
Ti      0.28188041     2.81340675     1.20429211     0.00018281    -0.00018281     0.00000000
Ti      1.79101238    -0.93792793     3.61287671    -0.00018281     0.00018281     0.00000000
O       0.09404803     0.93774876     0.78467745    -0.00011956     0.00023474     0.05078342
O       1.97884465     0.93772997     4.03249148     0.00011956    -0.00023474    -0.05078342
O      -0.09402716    -0.93772988     3.19326204     0.00023474    -0.00011956     0.05078342
O       2.16691979     2.81320855     1.62390688    -0.00023474     0.00011956    -0.05078342
