# total energy = -4987.22087373 eV

CRYSTAL
PRIMVEC
        3.65288823     0.00000000     0.00000000
        0.00000000     3.43411668     0.00000000
        0.00000000    -0.00006763     4.88407700
PRIMCOORD
6 1
Ti      1.82644396     1.71702463     2.44203860     0.00000000     0.00000000     0.00000000
Ti      0.00000000     0.00000000     0.00000000     0.00000000     0.00000000     0.00000000
O       1.82644396     0.66924562     0.95183473     0.00000000    -0.83910734    -0.25633522
O       1.82644396     2.76480363     3.93224253     0.00000000     0.83910734     0.25633522
O       0.00000000     1.04775200     3.39387428     0.00000000     0.83911248    -0.25550604
O       0.00000000     2.38629726     1.49020293     0.00000000    -0.83911248     0.25550604
