# total energy = -19958.36133465 eV

CRYSTAL
PRIMVEC
        7.60600008     0.00000000     0.00000000
        0.00000000     7.60600008     0.00000000
       -1.89786986    -1.89786986     4.85670466
PRIMCOORD
24 1
Ti      3.75042401     6.68313703     1.12991599     0.60855669    -4.13739632    -0.39222476
Ti      3.90853502     2.61658100     1.24556699    -0.59943030     1.99162327     1.47889574
Ti     -0.01402399     6.76585098     1.15758698    -1.26954513    -0.69944239     0.55912670
Ti     -0.03084701     2.85249499     1.29545999     1.25873647    -0.58632847    -0.22478469
Ti      5.75291920     2.91304324     3.76053780    -2.60906312     1.26483770     0.41987724
Ti      5.62239620    -0.66452280     3.61410879     0.53632486    -2.28541845    -0.63097183
Ti      1.84893822     2.67380823     3.67737183     2.53435918     1.37611971     0.60768303
Ti      1.93809623    -0.94550877     3.59951181    -0.36903623    -0.88934183    -1.25168187
O       3.98026400     4.58765100     0.77290698    -1.33731070     0.08427822    -0.17179603
O       4.06342499     0.71388498     0.75123098    -0.16279511     4.43333631    -1.06907023
O       0.05911000     4.77874500     0.79457499     1.02920398     0.35512116     0.47233034
O      -0.03377802     0.91072198     0.67848001     0.17002994     2.73871568     0.12442961
O       5.35832421     4.90126620     4.13966584     1.46549232    -2.00138318    -1.61678020
O       5.29974625     1.09482820     4.33396083     1.09177360    -0.80029369    -3.20546955
O       1.97126823     4.68370323     4.01251380    -0.86413601     0.30450614    -1.01653769
O       2.09591424     0.84886820     4.19319481    -0.69420120    -0.68345630    -1.20665721
O       3.82942922     2.94192023     3.22353682     0.47775023    -0.70415445    -1.00763190
O       3.84022623    -0.76936578     3.00411983    -1.14064823    -0.22694519     2.09749902
O       0.01617324     2.81876221     3.25345682    -1.63928816     0.28680486     0.70694976
O      -0.00024078    -0.65084780     3.17454581    -0.41907994    -0.39882530     0.83051548
O       5.66721101     6.46354403     1.53269798     1.28402534     0.77322614     1.42956834
O       5.74446602     2.50173800     1.40697700    -0.12078739     0.65516489     2.65599709
O       1.87228102    -0.60652698     1.58175901     0.35202863    -1.52104694     0.40950438
O       1.85880298     2.44335202     1.65576201     0.41704029     0.67029816     0.00122873
