# total energy = -19074.54248538 eV

CRYSTAL
PRIMVEC
        5.17600016     0.00000000     0.00000000
        0.00000000     5.50899976     0.00000000
        0.00000000     0.00000000     9.26300011
PRIMCOORD
22 1
Ti      1.85695002     3.38321601     3.24519700     1.28072635     0.63978892     0.43512955
Ti      3.51004900     2.18716498     5.83876101    -0.09070084     0.24542140     0.13578875
Ti      4.52571202     2.26097902     1.22382098    -0.07615559     0.18179249    -1.98663019
Ti      0.70428698     3.33531102     8.05679100     0.16404956    -0.61390150     1.27381574
Ti      1.88003802     0.57705499     1.36430701     0.20696360     0.25164193    -2.07205898
Ti      3.11150402     4.93298302     8.09663503     1.14139436     0.77945592     0.94244850
Ti      0.55691900     0.15854801     6.12456398     0.91014772     1.77151156    -1.61483028
Ti      4.50274303     4.96670198     3.36954900     0.07145278    -0.16644197     1.26826498
O       3.63602700     3.35677101     4.33495801    -0.80024459     0.36671529     0.94149693
O       0.91499398     1.91695401     0.16814401    -0.51942628     0.50080197    -0.99431975
O       4.34714100     3.82584298     9.15351698    -0.87486523    -0.92046787    -0.99508980
O       3.32964099     0.79552502     0.21514601     1.45235604     0.80722642    -1.25423061
O       1.58113400     4.71323502     9.09089600    -0.58738956    -0.02353460     0.67129420
O       4.23283299     0.87154302     4.72501599     0.11342863    -1.41215400     0.21240714
O       1.01112601     4.83244898     4.42985002    -0.20460332    -1.19139617     0.56862410
O       0.30520203     3.61661201     2.17229902    -0.15521756    -0.11503917     1.46805494
O       5.15661698     2.15452401     6.71136900    -0.34378567    -0.94519649    -0.20188695
O       2.85782798     2.05558400     2.13197502    -1.56802127     0.74248910     1.70456258
O       2.39313802     3.56376901     7.04300100    -0.44191058    -1.49413545    -1.01453043
O       0.08417501     0.74714102     2.09985597     0.27199993    -0.58765618     1.43825944
O       2.30246000     0.66744899     6.71622299     0.16452187     0.70854796    -0.48274562
O       2.79208999     4.79451898     2.45912102    -0.11472035     0.47453069    -0.44382451
