# total energy = -4986.18026858 eV

CRYSTAL
PRIMVEC
        3.89542509     0.00000000     0.00000000
        0.00000000     3.28652538     0.00000000
        0.00000000    -0.00007424     5.15938019
PRIMCOORD
6 1
Ti      1.94771244     1.64322552     2.57969026     0.00000000     0.00000000     0.00000000
Ti      0.00000000     0.00000000     0.00000000     0.00000000     0.00000000     0.00000000
O       1.94771244     0.64048091     1.00548726    -0.00000000    -0.62678428     0.59548957
O       1.94771244     2.64597017     4.15389320    -0.00000000     0.62678428    -0.59548957
O       0.00000000     1.00271502     3.58517850     0.00000000     0.62756846     0.59763772
O       0.00000000     2.28373601     1.57420201     0.00000000    -0.62756846    -0.59763772
