# total energy = -19519.99271354 eV

CRYSTAL
PRIMVEC
        5.17575250     0.00001323     0.00000000
        0.00001429     5.50856584     0.00000000
        0.00000000     0.00000000     9.26345890
PRIMCOORD
23 1
Ti      1.85465982     3.37756081     3.38904233    -0.04326191     0.00483856     0.06129358
Ti      3.36258657     2.17820386     5.77479238     0.06635788    -0.01583877    -0.02440878
Ti      4.56235160     1.94478411     1.41576112     0.01660111     0.01225671     0.05388983
Ti      0.85917608     3.29387499     7.94713709    -0.01350575     0.01630851    -0.01775810
Ti      2.01091015     0.51847269     1.23598816    -0.00907600    -0.00404486    -0.00438450
Ti      3.17273134     5.16241264     7.93078228    -0.03597952    -0.03465488    -0.05146245
Ti      0.64937315     0.71492563     5.66059970    -0.05443747    -0.01222354    -0.06490727
Ti      4.54438211     4.84129740     3.55926264     0.02827443     0.03190123    -0.01580535
O       1.55789174     1.94755467     4.66141723    -0.01890764    -0.01407654    -0.01278687
O       3.54982276     3.54223321     4.51824280     0.01613162    -0.04031928    -0.01296736
O       0.74451743     2.10272554     0.10788221     0.01340085    -0.00317300    -0.02090282
O       3.51641743     0.91551038     0.05546404     0.00599993    -0.04097491     0.08616593
O       1.73189684     4.68826946     9.15449764    -0.04048795    -0.01895958    -0.01441310
O       4.09131218     0.77732934     4.70960855    -0.03772658     0.02033281     0.00373453
O       0.99367732     4.63213629     4.60549716     0.05305345     0.00412405     0.00283413
O       0.17054118     3.35225942     2.42154112    -0.02031789     0.00988718    -0.04183932
O       4.95100354     2.12647602     6.82809194     0.01310980     0.01430639     0.01243874
O       2.76700385     2.15155103     2.09054349     0.05409629     0.02329960     0.05083818
O       2.50305127     3.39178910     7.15129090    -0.02242594     0.01999265    -0.02108460
O       0.25209349     0.53805371     2.18027554    -0.01166047    -0.01082512     0.02501350
O       4.90893981     4.74918653     7.39405125     0.01540528     0.04420731    -0.03505649
O       2.32280715     0.70548198     6.74299148     0.03688043     0.02772679     0.04135904
O       2.80604108     4.88196637     2.45866193    -0.01152317    -0.03409104     0.00021032
