# total energy = -19074.58227674 eV

CRYSTAL
PRIMVEC
        5.17600016     0.00000000     0.00000000
        0.00000000     5.50899976     0.00000000
        0.00000000     0.00000000     9.26300011
PRIMCOORD
22 1
Ti      1.78112902     3.37033599     3.30111701     0.98230344     1.08744617     0.29209234
Ti      3.62790900     2.22479800     5.87687601    -0.97713295     0.50046079     0.76949469
Ti      4.39824301     2.22472101     1.26148099     0.28075840     0.08348221    -2.37531762
Ti      0.71635201     3.29921600     8.06676599     2.07423619    -0.25790977     1.48929020
Ti      1.80067900     0.49594000     1.33809098    -0.08474282    -0.03702930    -2.79380595
Ti      3.30233301     4.96509397     8.07564002    -1.05328263     0.54742715     0.56897043
Ti      0.70034699     0.19105902     6.00090902     0.83666376     1.84388583    -0.53808864
Ti      4.45079100     5.09515399     3.36228302    -1.01139677    -1.19851787     1.35161144
O       3.41459601     3.46234700     4.48217899    -0.47365317    -0.20156788     0.61483764
O       0.86840400     1.85035298     0.14341799    -1.02240495     1.01989504    -0.07454659
O       4.33144798     3.65143098     8.99686898    -0.74021933    -0.02540508     1.05932421
O       3.39824199     0.77726502     0.25047600     0.69141026     0.96940215    -0.50605551
O       1.63495598     4.78858002     9.09939702    -0.86943197    -0.68558697    -0.21162424
O       4.32616499     0.92237701     4.69630702     0.16242436    -0.63981849     0.26632088
O       1.04517598     4.91706399     4.26904301    -0.70269818    -0.57770293     1.66384143
O       0.02393702     3.55150400     2.40648302     0.59377387    -1.11220539     0.11246806
O       0.17031199     2.24983200     6.63071900    -0.56669192    -1.36631018    -0.97675088
O       2.49796401     2.00966703     2.24105200     1.12235225     0.30687619     0.57605125
O       2.50920897     3.42649598     7.25854802     0.00938170    -0.31134014    -1.44363871
O       5.15065802     0.68523099     2.07342299     0.50953036     0.12619982     0.60959336
O       2.47129300     0.72444403     6.63121299    -0.25203557    -0.33022876    -0.32591624
O       2.71435602     4.70276700     2.38133102     0.49085514     0.25854766    -0.12815154
