# total energy = -19961.63402586 eV

CRYSTAL
PRIMVEC
        7.60600008     0.00000000     0.00000000
        0.00000000     7.60600008     0.00000000
       -1.89786986    -1.89786986     4.85670466
PRIMCOORD
24 1
Ti      3.76802502     6.61568100     1.24339201     0.24983162    -1.24578916     0.06084518
Ti      3.76628398     2.77505302     1.19056197     0.61513332     1.07402784     1.12570626
Ti      0.04223200     6.70533802     1.27585598    -0.13630888    -0.07507444    -0.91766922
Ti      0.02484900     2.91371302     1.15066302    -0.72572705     0.21218679     0.03294381
Ti      5.70567420     2.97180620     3.61771879    -0.48065197     0.20475579    -0.37788211
Ti      5.72811724    -0.88692076     3.63643981    -0.73933024    -0.42872698    -0.37629420
Ti      1.81456620     2.77436620     3.64832481     0.64488562     0.56763114     0.25945912
Ti      1.86211823    -1.02442577     3.71888679     0.97453022    -0.54653857    -1.28979644
O       3.75711402     4.64979001     0.71856698    -0.24730191     0.63135930     0.76675698
O       3.77485601     0.87077101     0.75825999    -0.09631562     0.30692684     1.24153655
O       0.14590401     4.84938900     0.75419199    -0.57441628    -0.88125416    -0.13298753
O       0.10826099     0.95708500     0.79675499    -0.51647491     0.96202823    -0.39970873
O       5.86959522     4.87535922     4.01460083    -0.29812312    -0.81816004     0.30214973
O       5.75300424     1.05926225     3.90998979    -0.36793631    -1.02401858     1.27867153
O       1.79411620     4.69997924     4.09452982    -0.00638739    -0.13586717    -0.07561900
O       1.94607622     0.89672720     4.11161780    -0.10168717    -0.34621537    -0.90811603
O       3.80959523     2.87075822     3.17287181    -0.58797372     0.06235159     0.29640228
O       3.77424222    -1.18160179     3.22376082     0.62543933     0.93469996     0.29038461
O      -0.02336180     2.89387025     3.15122883    -0.07309932    -0.12798776     0.13915330
O       0.02415821    -0.83222277     3.20150781    -0.35255314     0.01555184     0.17483019
O       5.68892902     6.59126101     1.59414901     0.36964224     0.30816483     0.37279570
O       5.67307201     2.93933398     1.60850299     0.51972684    -0.28982026    -0.47271780
O       1.91938499     6.50791702     1.69979400    -0.20568987     0.58321897    -0.31209964
O       1.80087099     2.77097698     1.69371402     1.51078746     0.05654964    -1.07874453
