# total energy = -19960.83390523 eV

CRYSTAL
PRIMVEC
        7.60600008     0.00000000     0.00000000
        0.00000000     7.60600008     0.00000000
       -1.89786986    -1.89786986     4.85670466
PRIMCOORD
24 1
Ti      3.79346199     6.59418900     1.20441901    -1.03044222    -1.05873799     0.70578968
Ti      3.82820602     2.78360399     1.16321801    -1.86051701     1.10080717    -0.31165330
Ti      0.04928101     6.66969301     1.23824402     0.74015711     1.07192313     0.37481581
Ti     -0.07658999     2.99336901     1.18398001     2.59523676    -1.59716216     0.40658103
Ti      5.68085722     2.94589620     3.62296283     1.57468737    -1.53421948    -0.52672050
Ti      5.68471021    -0.96851777     3.64485579     0.33068873     1.19026591     0.89624859
Ti      1.96727024     2.85302924     3.65064182    -1.78530039    -1.37797862    -1.58558422
Ti      1.86344921    -1.06376978     3.74550779    -0.13315645     1.21904891    -1.38458225
O       3.62884903     4.63617602     0.70293398     1.25275840     1.90875170     1.04306711
O       3.65158200     0.87934998     0.80800598     0.64090658    -0.30742563     0.35090146
O       0.07492398     4.79895100     0.70192298    -0.86730412     0.44166272     0.41757122
O       0.03400001     0.98184298     0.84476602    -0.44412790    -0.38144952    -0.89108144
O       5.86358720     4.75715023     4.05862483    -0.57553009     0.87688740    -0.11400996
O       5.95498924     1.00848521     3.98078979    -1.42975886    -0.86193592     0.41951317
O       1.77513921     4.65781720     4.07948679     0.60949951     1.11389975     0.62303123
O       1.77789120     0.89694925     4.10194481     0.84719680    -0.70277891    -0.72950271
O       3.77329420     2.84571623     3.08839279     1.54620854    -0.27333948     1.97936450
O       3.72448622    -1.05430476     3.25779380     1.01676035     0.10414360     0.20626503
O       0.02265625     2.82396821     3.11880481    -0.46354205     0.42175749     0.16571075
O       0.06671221    -1.00264579     3.17901079    -1.13363066    -0.16940362     0.14110785
O       5.66129300     6.59786398     1.72548699     0.07764580     0.01396187    -0.95640522
O       5.74221199     2.96771402     1.63390498    -1.39353534     0.03031512    -0.80952267
O       1.90338902     6.61969598     1.61746000     0.10975144    -0.07596893     0.07721129
O       1.92511598     3.11498098     1.68852899    -0.22465305    -1.15302475    -0.49811697
