# total energy = -4854.20988044 eV

CRYSTAL
PRIMVEC
        4.96310861     0.00000000     0.00000000
       -0.00000644     1.88255817     0.00000000
       -2.48158406    -0.94136844     5.47748794
PRIMCOORD
6 1
Ti     -0.00021206     1.41197191     1.36937175    -0.07273525    -0.06321548   129.81166165
Ti      2.48173022    -0.47078242     4.10811577     0.07273525     0.06321548  -129.81166165
O       0.00005269     0.47062456     0.89223795     0.07200608     0.06392870  -121.63984765
O       2.48146532     0.47056488     4.58524961    -0.07200608    -0.06392870   121.63984765
O      -0.00002151    -0.47067642     3.63098192    -0.00019026    -0.00007045     0.63456958
O       2.48153943     1.41186581     1.84650564     0.00019026     0.00007045    -0.63456958
