# total energy = -19960.64685164 eV

CRYSTAL
PRIMVEC
        5.93400000     0.00000000     0.00000000
        0.00000000     9.29699974     0.00000000
        0.00000000     0.00000000     4.64899994
PRIMCOORD
24 1
Ti      4.45195101     6.86637603     2.16425499     0.33046581    -0.04128190     0.49171004
Ti      4.44492999     2.30980102     2.28489598    -0.58876664     1.91097853    -0.19478865
Ti      1.49580702     6.99677202     2.35577398    -0.33986217    -0.49827921    -0.24368205
Ti      1.43089698     2.27403699     2.40413602     0.55587734     0.87447030    -0.53895870
Ti      2.92036599     4.70348398     4.60698401     0.75472036    -0.77051671     0.75785479
Ti      2.97758402     0.09097599     0.05465898     1.05335924    -0.59588115    -0.58831336
Ti      0.05008001     4.58974098     4.57200503    -1.36489864     0.08595535     0.24878492
Ti      0.01246498     0.03005901     0.03231998    -1.08760352    -0.58977940    -0.23909211
O       4.44159802     5.55074798     0.84893800     0.08398640     0.12823845     0.16378062
O       4.41493199     0.84364300     1.06723298     0.45473961    -0.06945658    -0.64004115
O       1.50443700     5.61444097     0.84625502    -0.06130078    -0.15176328     0.03399437
O       1.49257100     0.89475300     1.14947999    -0.11727449    -0.81266250    -1.25894319
O       4.40543998     8.45142101     3.80683102     0.10030726     0.27449622     0.25556158
O       4.51941899     3.68092901     3.71992800    -0.08763660     1.00966359     0.53790841
O       1.49901098     8.56721701     3.79972697    -0.08053212    -0.88601893    -0.70372354
O       1.46836601     3.76663599     3.74400498     0.44784057    -0.45318615    -0.16823557
O       2.93606700     5.95375303     3.07817898     0.00640539     0.36191967     0.78393864
O       3.10037902     1.50927802     3.22857703    -1.56437596    -0.85113342     1.49389531
O       5.89045999     6.06936100     3.28705101     0.31849398     0.56511557    -0.79906522
O       5.83790300     1.45244402     3.36003598     1.14495946    -0.06194947    -0.05978306
O       2.93517301     7.79318701     1.44145999     0.04956806     1.11676859    -0.35251663
O       2.94461300     3.35133101     1.40727302     0.27298826    -1.03600018     0.29095385
O       0.00195399     7.75957198     1.32124399     0.11091692     0.55842607     0.64232429
O       0.12020298     3.20842601     1.42126600    -0.39237800    -0.06812346     0.08643564
