# total energy = -39029.38062071 eV

CRYSTAL
PRIMVEC
        7.60600008     0.00000000     0.00000000
        0.00000000     7.60600008     0.00000000
       -3.79573973    -3.79573973     9.71340985
PRIMCOORD
46 1
Ti      2.04215645     4.77604043     6.11889062     0.72549719     1.14366593     0.27499733
Ti      3.55464700     6.90766598     0.99199599     0.57352848     1.62483084     2.43315050
Ti      1.80720143     0.69093546     6.22734465     6.12713780    -0.63521030    -2.49583041
Ti      3.58297798     3.00485602     1.39270599     1.26861439    -0.99893103     1.08437730
Ti     -1.80497455     4.52982944     6.04006363    -0.94016690     1.10469931     1.40313688
Ti     -0.22260799     6.67471602     1.00606300     0.02854491     0.36832738     1.32872552
Ti     -1.71583257     0.62819547     6.00742964    -3.96563936    -0.45070915    -2.16631025
Ti     -0.09729897     2.90550802     1.28632501    -1.31314335     0.08194160    -5.00299451
Ti      4.06152345     1.02884345     8.47941560    -1.31377995    -1.50084320    -1.45374572
Ti      5.45249802     2.70711301     3.66028501     0.19455802    -0.31147384    -0.71625021
Ti      3.91781346    -2.74725857     8.67529363    -0.29721475     1.20769491    -1.68555672
Ti      5.78250698    -1.09869802     3.65572901     0.18134974    -0.47462942    -0.96419875
Ti      0.04062044     0.95744543     8.38116760     3.51046472     1.80786723     3.49743179
Ti      1.63206397     2.74107301     3.55479400     1.66395405    -1.25313995    -0.98362139
Ti      0.06007744    -2.27336854     8.51162064     0.26495022    -3.46026674     0.38983466
Ti      2.04517799    -1.01902700     3.42046299    -0.65026668     0.48499303     1.74187959
O       2.23374443    -1.10557854     5.65174564    -1.01052156     0.92799144    -1.42530056
O       4.04307501     1.08135201     0.84029701    -0.67731804    -0.38620246    -1.56866070
O      -1.79679055     2.74925446     5.70990661     0.75196079    -1.52101634    -0.32663538
O       0.28825798     4.87120602     0.78688398    -0.46678755    -0.61422855    -0.26129308
O      -2.11041957    -1.29458457     5.61706961     1.26883320     3.30756989     0.05990107
O       7.14288802     1.05918298     0.83137699     0.57166752    -0.19523345    -0.75502735
O       3.59014744     2.83379243     8.78618664     0.86562236     1.20358989     0.86331788
O       5.48478001     4.57193703     4.08758998     0.16117815    -0.63539747    -0.29193370
O       3.90030246    -0.82207755     8.88096863     0.08948754     0.41581490     0.14028972
O       5.75084900     0.67862802     4.12298702     0.91191304     2.40223965    -0.15918785
O      -0.10750156     2.77174545     9.00672565     0.28818889    -0.57428567    -1.56511515
O       2.20979498     4.32068901     4.16610300    -0.32415632     1.05798543     0.05510622
O       0.19623745    -0.68683857     9.31592963     0.19519462     1.84747843    -2.31555616
O       1.65266199     1.08854898     4.25721298    -0.01849010    -0.44858491     0.57758028
O       1.99486144     0.99708043     8.05822565     0.02221511     0.16869323     0.21520476
O       3.74398598     2.31062801     3.10317699    -1.30591597     0.55310620     2.19963639
O       2.16765744    -2.54701752     7.94405862    -3.15220244    -0.15478355     2.46800618
O       3.82016899    -0.67194499     3.28954698    -1.51808348    -1.07785852    -0.81272447
O      -1.59171955     0.87587143     7.83409061    -5.78201952     0.56985437     2.30983880
O      -0.13573698     2.92114002     2.98384001    -0.20258809     0.14384351     5.27223179
O      -1.76814656    -2.57680454     8.32360164     0.10276035    -0.46064801    -0.10865974
O       0.11222400    -1.03726001     3.41784198    -1.03195969    -0.87437569    -0.60092900
O       3.88985248     4.79347343     6.64904764     2.05382368    -2.14737664    -0.71781987
O       5.62718002     6.64679202     1.70020200     0.27974975    -1.03517794    -0.53889982
O       3.88352246     0.91620146     6.24420662     0.88324086     0.17573908     1.94915943
O       5.50990698     2.99085103     1.76236900     0.63782820     1.20882774    -0.59830184
O       0.07309345    -2.55829953     6.64713662     0.01168747    -1.09229887    -1.21631017
O       1.64091298    -0.41073299     1.35795900     1.88712306    -1.18578216     1.16044650
O       0.12733142     0.44018546     6.57828463    -1.59579562    -0.92998276    -1.92447400
O       1.75921500     2.58171800     1.43153898     0.04497607     0.61168315     1.23108476
