# total energy = -19960.67661044 eV

CRYSTAL
PRIMVEC
        5.93400000     0.00000000     0.00000000
        0.00000000     9.29699974     0.00000000
        0.00000000     0.00000000     4.64899994
PRIMCOORD
24 1
Ti      4.43344398     6.97723998     2.32120198     0.57531617    -0.14474571    -0.26247271
Ti      4.40929202     2.24483599     2.40846400    -0.11818131     0.41019549    -0.71996777
Ti      1.53751101     6.90527802     2.32922002    -0.64775266     0.46756685     0.19856071
Ti      1.41099901     2.35007299     2.22507900     0.08967163    -0.08232830    -0.81362461
Ti      2.97119500     4.63258799     0.01194401     0.24562400     0.38099855     0.61020734
Ti      3.01060902     0.03473202     4.59911800    -1.78965996    -0.60133986     0.18838248
Ti      0.02385901     4.61704801     4.55265899    -0.03113401     0.50155916     0.53077745
Ti      5.90977601     9.28801701     0.05136999     1.63165764    -0.76862103     0.07173612
O       4.39993902     5.60432099     1.00778299     0.34710240    -0.65964093    -0.71091054
O       4.48656698     1.06389599     0.88564099    -0.44310485    -1.37055996    -0.45076726
O       1.55712200     5.38897501     1.00605602    -0.77900418     1.22246925     0.11022915
O       1.51257803     0.93540900     0.89550602    -0.18584892    -0.02933887    -0.09939991
O       4.40356097     8.36782598     3.75062800     0.41461188     1.21576638     1.33541554
O       4.47000902     3.88188301     3.60640000     0.13741857    -0.65953217     0.19309275
O       1.47580698     8.37472100     3.82950902     0.35872867     0.71580464     0.45419428
O       1.48395499     3.78385600     3.72406802    -0.09523910    -0.13769934    -0.72852209
O       2.95464900     6.14390297     3.33890800     0.21601671    -0.56557786    -0.03587822
O       2.90843802     1.37174798     3.14461200     0.80445425     0.22934814     0.62168758
O       0.02594699     6.24033198     3.33055901    -0.25273079    -1.32263612     0.40784088
O       0.06371903     1.38543499     3.24273299    -0.83178458     0.80432904    -0.58116955
O       2.92075398     7.99008699     1.64758702     0.64517950     0.12031482    -1.57780946
O       2.95511399     3.21187000     1.38041098     0.48265512    -0.24356301     0.27626719
O       0.06285700     7.91323098     1.46249399    -0.74232892     0.17029991    -0.36262852
O       5.93160299     3.13406697     1.20269500    -0.03166726     0.34693116     1.34475944
