# total energy = -19872.29698671 eV

CRYSTAL
PRIMVEC
        9.82099038     0.00000000     0.00000000
        0.00003030     3.48416789     0.00000000
        0.00000000     0.00000000    15.62436735
PRIMCOORD
24 1
Ti      3.55965437     2.06471479     5.79652898     0.28064296     0.02399509     1.94238303
Ti      6.26136590     1.41945344     9.82783884    -0.28064296    -0.02399509    -1.94238303
Ti      8.46998208     1.41945471     2.01559250     0.28091138    -0.02346081    -1.94430236
Ti      1.35103826     2.06471365    13.60877545    -0.28091138     0.02346081     1.94430236
Ti      3.55963963     0.32263091     2.01565516     0.28125719     0.02352637    -1.94381025
Ti      6.26138071     3.16153745    13.60871279    -0.28125719    -0.02352637     1.94381025
Ti      1.35102344     0.32262957     9.82777618    -0.28029663     0.02398557    -1.94301398
Ti      8.46999690     3.16153879     5.79659164     0.28029663    -0.02398557     1.94301398
O       3.10841598     1.22683485     7.97299525     0.36673458     0.54015889    -2.10532264
O       6.71260436     2.25733344     7.65137257    -0.36673458    -0.54015889     2.10532264
O       1.80215767     1.22684890     0.16086165    -0.36789337     0.54060292    -2.10666810
O       8.01886274     2.25731939    15.46350570     0.36789337    -0.54060292     2.10666810
O       6.71258955     0.51524943     0.16081091    -0.36702408    -0.54017329    -2.10509458
O       3.10843079     2.96891880    15.46355644     0.36702408     0.54017329     2.10509458
O       8.01884793     0.51523544     7.97304592     0.36750977    -0.54040546    -2.10698820
O       1.80217228     2.96893285     7.65132189    -0.36750977     0.54040546     2.10698820
O       0.35683748     2.11926844     4.22053149    -1.56273482     0.53228411     0.35968950
O       9.46418286     1.36489979    11.40383626     1.56273482    -0.53228411    -0.35968950
O       5.26734571     1.36486721     3.59170206    -1.56139142    -0.53223655    -0.35997617
O       4.55367463     2.11930109    12.03266549     1.56139142     0.53223655     0.35997617
O       0.35682267     0.37718449     3.59165219    -1.56266952     0.53220930    -0.35999134
O       9.46419767     3.10698380    12.03271537     1.56266952    -0.53220930     0.35999134
O       4.55365988     0.37721707    11.40388607     1.56169764     0.53237308    -0.35971803
O       5.26736046     3.10695115     4.22048162    -1.56169764    -0.53237308     0.35971803
