# total energy = -4989.67247970 eV

CRYSTAL
PRIMVEC
        3.63314127     0.00000000     0.00000000
        0.18153583     3.62860307     0.00000000
       -1.90737080    -1.81433221     4.63814689
PRIMCOORD
6 1
Ti      0.13600510     2.72159009     1.15953660     0.00226771    -0.00250194    -0.00109015
Ti      1.77130073    -0.90731968     3.47861004    -0.00226771     0.00250194     0.00109015
O       0.04542218     0.90714483     0.75551620     0.00006839     0.00099630     0.84703431
O       1.86188350     0.90712548     3.88263048    -0.00006839    -0.00099630    -0.84703431
O      -0.04540426    -0.90712779     3.07458965     0.00101533     0.00006222     0.84604829
O       1.95270993     2.72139805     1.56355709    -0.00101533    -0.00006222    -0.84604829
