# total energy = -4978.12654637 eV

CRYSTAL
PRIMVEC
        2.75326614     0.00000000     0.00000000
        1.65921363     3.98211242     0.00000000
       -0.00001058    -0.00005732     4.40643852
PRIMCOORD
6 1
Ti      2.20623452     1.99102742     2.20321921     0.00000000     0.00000000     0.00000000
Ti      0.00000000     0.00000000     0.00000000     0.00000000     0.00000000     0.00000000
O       1.69998723     0.77604379     0.85874995    -9.85733935     4.12684271     5.56613933
O       2.71248180     3.20601105     3.54768843     9.85733935    -4.12684271    -5.56613933
O       0.50624275     1.21496049     3.06197012     9.85434633    -4.12431428     5.56219397
O       1.15296028     2.76709452     1.34446830    -9.85434633     4.12431428    -5.56219397
