# total energy = -19960.38121277 eV

CRYSTAL
PRIMVEC
        5.93400000     0.00000000     0.00000000
        0.00000000     9.29699974     0.00000000
        0.00000000     0.00000000     4.64899994
PRIMCOORD
24 1
Ti      4.45929398     6.91918601     2.17829999    -0.54748577     0.19833600     1.04947945
Ti      4.44643502     2.21707900     2.27884399     0.07885242     1.50238895     0.30616965
Ti      1.49086800     6.99488699     2.40780602     0.52439134    -1.02651486    -0.10939842
Ti      1.45453802     2.28959798     2.30367500     0.15211578     1.44863745     0.65607532
Ti      2.99845700     4.70265201     4.62608900    -1.51290991    -1.92102049     0.18115203
Ti      2.98611103     0.03380601     0.00938702    -0.11882023     0.08898566    -0.66024668
Ti      5.90240500     4.65171801     4.59858502     1.36279908    -1.50251596    -0.28635852
Ti      5.93222800     9.23889100     0.10682300    -0.14226228     1.06764224    -1.16373417
O       4.54088199     5.52780201     0.96621998    -0.20125755     0.30369650    -0.48885611
O       4.40259501     0.89028902     0.86016201     0.34874765     0.31678625     1.29748892
O       1.48815099     5.58439101     0.92627202    -0.34796063    -0.19195143    -0.10019104
O       1.45353798     1.02394602     1.00037599     0.04990359    -1.77298146    -1.06459060
O       4.40755198     8.44444402     3.82700601     0.13476391    -0.57895814    -0.53465056
O       4.42443897     3.73079598     3.70589602     0.94664788     1.18905029     0.85867396
O       1.46083502     8.58105198     3.77294500     0.13210564    -1.41611067    -0.65700400
O       1.60315200     3.77669401     3.66940401    -1.15129080     0.88995761     0.96596382
O       3.05087602     6.02412201     3.22344200    -0.28448161     1.26893553    -0.31613422
O       3.01150503     1.50895401     3.19285798    -0.91325644    -1.48460025     1.27344293
O       5.87571600     6.18636500     3.24023702     0.18891882    -0.87795569     0.84080967
O       5.90331000     1.43210900     3.38839702     0.16728580     0.29890217    -1.11685575
O       2.84829798     7.80866899     1.39663503     1.08487867     0.86175619    -0.03439623
O       2.99271003     3.24982000     1.37010298    -0.07290700    -0.17802762     0.20692477
O       0.07568399     7.83325801     1.45586398    -0.72934845     0.95223695    -0.54286267
O       5.85266001     3.19481499     1.42850499     0.85057035     0.56332505    -0.56090153
