# total energy = -19518.19251901 eV

CRYSTAL
PRIMVEC
        5.93400000     0.00000000     0.00000000
        0.00000000     9.29699974     0.00000000
        0.00000000     0.00000000     4.64899994
PRIMCOORD
23 1
Ti      4.55342302     7.10613698     2.23981299    -0.20267577    -0.12324048     0.16545441
Ti      4.44433202     2.29078202     2.39844403     0.42583218    -0.35842863    -0.08310066
Ti      1.40845801     7.03215398     2.14446202     0.19084277     0.39684992     1.11482740
Ti      1.47270097     2.26977601     2.30684598    -0.63846249    -0.19380906     0.58460763
Ti      2.97855300     4.44992002     0.21694399    -0.33194214    -0.78460713    -0.30901123
Ti      2.95190099     9.26759702     4.60742402    -0.39430658     0.17292372    -0.43149863
Ti      5.92754102     4.64245799     0.01190601     0.09727567    -0.79729784    -0.64260788
Ti      5.89290600     0.12175601     4.60989401     0.41822145     0.02100952    -0.01232613
O       4.37124100     5.52960201     1.01471299    -0.04720779     0.24985861    -0.50841861
O       4.40958402     0.92176300     0.86841199     0.69769378     0.15493936     0.23030434
O       1.49192498     5.51469699     0.91177298     0.43844396     0.80906347     0.23700592
O       1.52958901     0.97438402     0.91196799    -0.38361568    -0.73887310    -0.60476560
O       4.50657300     8.43180399     3.63106898    -0.12992740    -0.22887455     0.54748217
O       4.41565299     3.52439399     3.86112699    -0.21494379     1.88394054     0.32252933
O       1.51418302     8.40860602     3.64249503    -0.19405023    -0.38818427     0.23097951
O       1.48537302     3.67140800     3.75994200     0.33552137     1.17477758     0.60246240
O       3.00130201     1.33234301     3.18107601    -0.23343337     0.18097051     0.10333962
O       0.00097501     6.09900001     3.23805602     0.15963651    -0.10326351    -0.23636366
O       0.01269300     1.51882502     3.35110601     0.01205642    -0.57554474    -0.70446684
O       3.01459002     7.99803999     1.37906899    -0.25354918    -1.69746402     0.66992432
O       2.93532499     3.20595502     1.55797403     0.58239571     0.89360266    -0.76423910
O       0.03311300     7.96697702     1.37748198    -0.10230732    -0.03046244    -0.62781143
O       0.02220899     3.23568102     1.42987900    -0.23149784     0.08211361     0.11569274
