# total energy = -19945.93673541 eV

CRYSTAL
PRIMVEC
        5.64849388     0.00000000     0.00000000
        2.04160135     5.65442073     0.00000000
        0.00000000     0.00000000    10.27282372
PRIMCOORD
24 1
Ti      3.25715851     3.35080440     3.81114435     0.81233906    -2.71427245     0.99369420
Ti      4.43293693     2.30361618     6.46167949    -0.81233906     2.71427245    -0.99369420
Ti      5.70321229     2.30361810     1.32522655    -1.98114654    -0.63746258     0.59352936
Ti      1.98688318     3.35080265     8.94759739     1.98114654     0.63746258    -0.59352936
Ti      2.23635798     0.52359418     1.32526774     0.81233906    -2.71427245    -0.99369420
Ti      5.45373748     5.13082651     8.94755621    -0.81233906     2.71427245     0.99369420
Ti      0.96608253     0.52359210     6.46163830     1.98114654     0.63746258     0.59352936
Ti      6.72401294     5.13082865     3.81118553    -1.98114654    -0.63746258    -0.59352936
O       2.50666657     1.99101760     5.24214332     1.38329747     1.89170811    -0.91219971
O       5.18342887     3.66340298     5.03068052    -1.38329747    -1.89170811     0.91219971
O       1.75538681     1.99104041     0.10576451     0.03977112    -0.61303787     1.04869680
O       5.93470870     3.66338022    10.16705904    -0.03977112     0.61303787    -1.04869680
O       4.16262832     0.83619265     0.10573117    -1.38329747    -1.89170811    -0.91219971
O       3.52746712     4.81822793    10.16709238     1.38329747     1.89170811     0.91219971
O       4.91390813     0.83616984     5.24217665    -0.03977112     0.61303787     1.04869680
O       2.77618725     4.81825076     5.03064718     0.03977112    -0.61303787    -1.04869680
O       1.44704048     3.43933913     2.77494598     0.42668476     1.52610404     1.42535276
O       6.24305496     2.21508145     7.49787786    -0.42668476    -1.52610404    -1.42535276
O       3.82924575     2.21502878     2.36149859     1.19598533     1.07472718     0.25702222
O       3.86084969     3.43939180     7.91132507    -1.19598533    -1.07472718    -0.25702222
O       0.42623993     0.61212880     2.36146577     0.42668476     1.52610404    -1.42535276
O       7.26385551     5.04229178     7.91135789    -0.42668476    -1.52610404     1.42535276
O       2.84004914     0.61218147     7.49791057    -1.19598533    -1.07472718     0.25702222
O       4.85004631     5.04223911     2.77491321     1.19598533     1.07472718    -0.25702222
