# total energy = -4971.99919046 eV

CRYSTAL
PRIMVEC
        4.65885656     0.00000000     0.00000000
       -0.00000705     2.79531394     0.00000000
       -2.32945452    -1.39770796     5.07369574
PRIMCOORD
6 1
Ti     -0.00019970     2.09658481     1.26842360    -0.01247345    -0.01760126    21.72593442
Ti      2.32959453    -0.69897894     3.80527152     0.01247345     0.01760126   -21.72593442
O       0.00004934     0.69881951     0.82646347     0.01015355     0.01220015   -13.07081121
O       2.32934539     0.69878631     4.24723170    -0.01015355    -0.01220015    13.07081121
O      -0.00001919    -0.69882881     3.36331134    -0.00213659    -0.00007148    -1.22122175
O       2.32941387     2.09643458     1.71038378     0.00213659     0.00007148     1.22122175
