# total energy = -19009.91932311 eV

CRYSTAL
PRIMVEC
        7.60600008     0.00000000     0.00000000
        0.00000000     7.60600008     0.00000000
       -1.89786986    -1.89786986     4.85670466
PRIMCOORD
22 1
Ti      4.38327100     6.25274902     1.14557101     3.04326990    -0.46174047    -3.93173473
Ti      4.82400823     3.29133824     3.31320580   -11.87815340     5.86937895    -4.00359374
Ti      0.88011998     6.12424102     0.34428103    -8.47722080     3.91458392     4.59821299
Ti     -0.03803700     2.85008898     0.40064899   -11.43029894    -4.48559915    14.14858746
Ti     -1.19937775     2.41205521     4.36723682   -14.71903395    32.14625044    34.14620332
Ti     -1.16347778     1.44450720     3.26942882     4.02835116   -31.05085056   -49.18336744
Ti      0.29675324     2.19177623     3.82341184    38.50714094     8.29227511    -1.34208781
Ti      0.53539223    -0.83893877     3.95525079     2.91007925    -0.75891203     0.87578260
O       4.41558600     4.46376801     2.02750400    -1.88366775     3.21774708    -1.12986425
O       3.92222098     0.28156701     0.53394699     1.32707076     0.34505477     0.65687674
O       1.00733001     4.40896297     1.27456997     2.09531796     1.17491410     0.28004132
O       0.56424900     1.26592100     0.26607101     2.42341450    -6.56049559     2.03699323
O      -1.19860478     3.99804620     3.07831482    -0.44614776     3.12059457     3.19599554
O       4.93596023     1.43529423     3.28739481   -17.65879275    -2.64606671     0.03804180
O       2.28105500     6.73608999     0.01899598     6.39151055     2.19079668    -2.61710374
O       1.07424622     0.95210624     4.70677779     1.13317172    -6.83665274     0.26887810
O       2.66244320     2.87947223     3.70426779     0.24071757     0.92911064     1.30071206
O       0.29038797     3.18020298     2.35224500     2.21136320    -4.34776791    -2.34654800
O       6.32499002     6.39846702     0.44390600    -0.84471029    -1.41251164    -0.74217209
O       5.82436898     2.60047998     1.18744099     2.11989077    -0.53185500    -1.24087655
O       0.65091098     6.37993000     2.10686302     0.24907340     3.02953429     6.04132514
O      -1.38943478    -0.29578976     3.68471279     0.65765398    -5.13778850    -1.05030220
