# total energy = -19918.60444629 eV

CRYSTAL
PRIMVEC
        7.48413825     0.00000000     0.00000000
        0.00002945     5.31025747     0.00000000
        0.00000000     0.00000000    11.62757105
PRIMCOORD
24 1
Ti      2.71265772     3.14685364     4.31374592     0.57085582    -0.53741784     1.43307584
Ti      4.77151011     2.16340383     7.31382525    -0.57085582     0.53741784    -1.43307584
Ti      6.45459783     2.16340568     1.49999318     0.57117901     0.53786547    -1.43375358
Ti      1.02957000     3.14685204    10.12757806    -0.57117901    -0.53786547     1.43375358
Ti      2.71264300     0.49172503     1.50003979     0.57107591    -0.58289913    -1.43235619
Ti      4.77152484     4.81853263    10.12753145    -0.57107591     0.58289913     1.43235619
Ti      1.02955527     0.49172305     7.31377858    -0.57152148    -0.58326422    -1.43299022
Ti      6.45461256     4.81853460     4.31379254     0.57152148     0.58326422     1.43299022
O       2.36878744     1.86983195     5.93346052     0.78904820     1.38555695    -1.46675833
O       5.11538039     3.44042558     5.69411065    -0.78904820    -1.38555695     1.46675833
O       1.37334634     1.86985335     0.11971237    -0.78822390     1.38595213    -1.46775644
O       6.11082162     3.44040418    11.50785843     0.78822390    -1.38595213     1.46775644
O       5.11536573     0.78529678     0.11967462    -0.78893687    -1.38615319    -1.46636984
O       2.36880210     4.52496068    11.50789618     0.78893687     1.38615319     1.46636984
O       6.11080689     0.78527545     5.93349821     0.78827173    -1.38656997    -1.46745973
O       1.37336087     4.52498215     5.69407290    -0.78827173     1.38656997     1.46745973
O       0.27193412     3.22999961     3.14089704    -1.86126289     0.53487605     0.23211028
O       7.21223372     2.08025792     8.48667413     1.86126289    -0.53487605    -0.23211028
O       4.01401161     2.08020840     2.67292553    -1.86186067    -0.53489456    -0.23191873
O       3.47015622     3.23004913     8.95464546     1.86186067     0.53489456     0.23191873
O       0.27191939     0.57487082     2.67288835    -1.86114231     0.53439165    -0.23197607
O       7.21224844     4.73538665     8.95468257     1.86114231    -0.53439165     0.23197607
O       3.47014156     0.57492033     8.48671118     1.86143104     0.53427878    -0.23215707
O       4.01402627     4.73533720     3.14085993    -1.86143104    -0.53427878     0.23215707
