# total energy = -19912.70587019 eV

CRYSTAL
PRIMVEC
        7.11665943     0.00000000     0.00000000
        0.00003309     6.19713657     0.00000000
        0.00000000     0.00000000    11.69628635
PRIMCOORD
24 1
Ti      2.57946635     3.67241726     4.33923896     0.36943321    -0.89447864     0.97248414
Ti      4.53722624     2.52471904     7.35704785    -0.36943321     0.89447864    -0.97248414
Ti      6.13767276     2.52472104     1.50885771     0.36942061     0.89447684    -0.97286697
Ti      0.97901983     3.67241546    10.18742924    -0.36942061    -0.89447684     0.97286697
Ti      2.57945007     0.57384911     1.50890461     0.36943321    -0.89447864    -0.97248414
Ti      4.53724252     5.62328739    10.18738234    -0.36943321     0.89447864     0.97248414
Ti      0.97900355     0.57384685     7.35700095    -0.36942061    -0.89447684    -0.97286697
Ti      6.13768904     5.62328959     4.33928586     0.36942061     0.89447684     0.97286697
O       2.25247931     2.18211704     5.96852558     0.95098842     1.43240684    -0.87741242
O       4.86421327     4.01501926     5.72776124    -0.95098842    -1.43240684     0.87741242
O       1.30591529     2.18214208     0.12041984    -0.95055030     1.43290641    -0.87831385
O       5.81077736     4.01499428    11.57586665     0.95055030    -1.43290641     0.87831385
O       4.86419699     0.91645091     0.12038187    -0.95098842    -1.43240684    -0.87741242
O       2.25249560     5.28068539    11.57590461     0.95098842     1.43240684     0.87741242
O       5.81076101     0.91642593     5.96856355     0.95055030    -1.43290641    -0.87831385
O       1.30593144     5.28071043     5.72772327    -0.95055030     1.43290641     0.87831385
O       0.25858470     3.76944978     3.15945886    -0.82596823     0.07956359     0.00552196
O       6.85810789     2.42768652     8.53682796     0.82596823    -0.07956359    -0.00552196
O       3.81692153     2.42762892     2.68872176    -0.82623125    -0.07940675    -0.00567854
O       3.29977105     3.76950738     9.00756486     0.82623125     0.07940675     0.00567854
O       0.25856835     0.67088143     2.68868439    -0.82596823     0.07956359    -0.00552196
O       6.85812423     5.52625487     9.00760223     0.82596823    -0.07956359     0.00552196
O       3.29975471     0.67093903     8.53686527     0.82623125     0.07940675    -0.00567854
O       3.81693788     5.52619727     3.15942148    -0.82623125    -0.07940675     0.00567854
