# total energy = -19922.63434670 eV

CRYSTAL
PRIMVEC
        6.88892633     0.00000000     0.00000000
        0.00003203     5.99882820     0.00000000
        0.00000000     0.00000000    11.32200519
PRIMCOORD
24 1
Ti      2.49692343     3.55489991     4.20038332     0.36050891    -0.84438016     0.89774342
Ti      4.39203500     2.44392803     7.12162232    -0.36050891     0.84438016    -0.89774342
Ti      5.94126723     2.44392997     1.46057426     0.36015769     0.84455859    -0.89807355
Ti      0.94769119     3.55489816     9.86143150    -0.36015769    -0.84455859     0.89807355
Ti      2.49690766     0.55548594     1.46061966     0.36050891    -0.84438016    -0.89774342
Ti      4.39205076     5.44334219     9.86138610    -0.36050891     0.84438016     0.89774342
Ti      0.94767543     0.55548375     7.12157692    -0.36015769    -0.84455859    -0.89807355
Ti      5.94128299     5.44334432     4.20042871     0.36015769     0.84455859     0.89807355
O       2.18039998     2.11228930     5.77753276     0.96695112     1.38109017    -0.81404576
O       4.70855845     3.88653864     5.54447288    -0.96695112    -1.38109017     0.81404576
O       1.26412600     2.11231354     0.11656640    -0.96639319     1.38099530    -0.81460960
O       5.62483248     3.88651447    11.20543891     0.96639319    -1.38099530     0.81460960
O       4.70854269     0.88712448     0.11652965    -0.96695112    -1.38109017    -0.81404576
O       2.18041574     5.11170346    11.20547567     0.96695112     1.38109017     0.81404576
O       5.62481666     0.88710030     5.77756951     0.96639319    -1.38099530    -0.81460960
O       1.26414164     5.11172770     5.54443613    -0.96639319     1.38099530     0.81460960
O       0.25030999     3.64882739     3.05835617    -0.80009289     0.06737938     0.03017628
O       6.63864843     2.35000055     8.26364946     0.80009289    -0.06737938    -0.03017628
O       3.69478005     2.34994480     2.60268266    -0.79994428    -0.06725700    -0.03032900
O       3.19417838     3.64888314     8.71932278     0.79994428     0.06725700     0.03032900
O       0.25029417     0.64941323     2.60264649    -0.80009289     0.06737938    -0.03017628
O       6.63866426     5.34941471     8.71935896     0.80009289    -0.06737938     0.03017628
O       3.19416255     0.64946898     8.26368558     0.79994428     0.06725700    -0.03032900
O       3.69479587     5.34935896     3.05832000    -0.79994428    -0.06725700     0.03032900
