# total energy = -4963.09434244 eV

CRYSTAL
PRIMVEC
        4.42115980     0.00000000     0.00000000
       -0.00000669     2.65269588     0.00000000
       -2.21060480    -1.32639633     4.81483371
PRIMCOORD
6 1
Ti     -0.00018951     1.98961620     1.20370811    -0.01631726    -0.02206753    28.97577130
Ti      2.21073767    -0.66331675     3.61112501     0.01631726     0.02206753   -28.97577130
O       0.00004682     0.66316545     0.78429697     0.01501396     0.01786943   -18.17556565
O       2.21050123     0.66313395     4.03053620    -0.01501396    -0.01786943    18.17556565
O      -0.00001821    -0.66317428     3.19171382    -0.00160205    -0.00024220     0.01834431
O       2.21056622     1.98947363     1.62311930     0.00160205     0.00024220    -0.01834431
