# total energy = -4981.13964235 eV

CRYSTAL
PRIMVEC
        2.95108632     0.00000000     0.00000000
        2.17595784     4.07992028     0.00000000
       -0.00001400    -0.00006304     4.78490792
PRIMCOORD
6 1
Ti      2.56351485     2.03992852     2.39245406     0.00000000     0.00000000     0.00000000
Ti      0.00000000     0.00000000     0.00000000     0.00000000     0.00000000     0.00000000
O       1.89960245     0.79510405     0.93250813    -6.94266477     3.05126398     4.08426548
O       3.22742727     3.28475309     3.85240004     6.94266477    -3.05126398    -4.08426548
O       0.66390646     1.24479914     3.32496313     6.94146612    -3.05033144     4.08278401
O       1.51203706     2.83505808     1.45994500    -6.94146612     3.05033144    -4.08278401
