# total energy = -4864.98169023 eV

CRYSTAL
PRIMVEC
        5.56210426     0.00000000     0.00000000
       -0.00000688     1.85403475     0.00000000
       -2.78108753    -0.92713802     6.30976218
PRIMCOORD
6 1
Ti     -0.00023804     1.39057028     1.57744016    -0.07044234    -0.04957911   132.27673291
Ti      2.78124774    -0.46367359     4.73232109     0.07044234     0.04957911  -132.27673291
O       0.00005872     0.46348859     1.02780853     0.06931594     0.04677661  -127.82318489
O       2.78095082     0.46340804     5.28195277    -0.06931594    -0.04677661   127.82318489
O      -0.00002552    -0.46356646     4.18268947    -0.00080038    -0.00122153    -0.37024851
O       2.78103496     1.39046304     2.12707184     0.00080038     0.00122153     0.37024851
