# total energy = -19907.40642644 eV

CRYSTAL
PRIMVEC
        6.58878649     0.00000000     0.00000000
        3.30000986     6.18745149     0.00000000
        0.00000000     0.00000000    12.20306346
PRIMCOORD
24 1
Ti      4.34370102     3.66667803     4.52724953     0.02404188    -2.26787709     0.33023698
Ti      5.54509551     2.52077362     7.67581406    -0.02404188     2.26787709    -0.33023698
Ti      7.02683120     2.52077583     1.57423351    -0.63809713    -1.45812662     0.59940870
Ti      2.86196554     3.66667611    10.62883014     0.63809713     1.45812662    -0.59940870
Ti      2.69369634     0.57295249     1.57428246     0.02404188    -2.26787709    -0.33023698
Ti      7.19510031     5.61449940    10.62878125    -0.02404188     2.26787709     0.33023698
Ti      1.21196054     0.57295011     7.67576511     0.63809713     1.45812662     0.59940870
Ti      8.67683610     5.61450172     4.52729841    -0.63809713    -1.45812662    -0.59940870
O       3.24738216     2.17870690     6.22712990     1.76820152     1.97196615    -0.92965520
O       6.64141445     4.00874480     5.97593369    -1.76820152    -1.97196615     0.92965520
O       2.37104218     2.17873181     0.12563738     0.32198682    -1.29538139     1.86083403
O       7.51775451     4.00871994    12.07742581    -0.32198682     1.29538139    -1.86083403
O       4.99140964     0.91501902     0.12559778    -1.76820152    -1.97196615    -0.92965520
O       4.89738695     5.27243262    12.07746542     1.76820152     1.97196615     0.92965520
O       5.86774970     0.91499416     6.22716944    -0.32198682     1.29538139     1.86083403
O       4.02104684     5.27245756     5.97589408     0.32198682    -1.29538139    -1.86083403
O       2.24663889     3.76355871     3.29635188     0.65142677     3.26499112     3.02820580
O       7.64215772     2.42389300     8.90671164    -0.65142677    -3.26499112    -3.02820580
O       4.82651838     2.42383521     2.80521867     0.52860769     2.16596264     2.06305883
O       5.06227823     3.76361649     9.39784466    -0.52860769    -2.16596264    -2.06305883
O       0.59663409     0.66983293     2.80517972     0.65142677     3.26499112    -3.02820580
O       9.29216251     5.51761871     9.39788361    -0.65142677    -3.26499112     3.02820580
O       3.41227342     0.66989072     8.90675053    -0.52860769    -2.16596264     2.06305883
O       6.47652317     5.51756092     3.29631293     0.52860769     2.16596264    -2.06305883
