# total energy = -19517.51771529 eV

CRYSTAL
PRIMVEC
        5.93400000     0.00000000     0.00000000
        0.00000000     9.29699974     0.00000000
        0.00000000     0.00000000     4.64899994
PRIMCOORD
23 1
Ti      4.59851300     7.23164300     2.20773500    -0.40118043    -2.06851317     0.25788020
Ti      4.43700699     2.21886201     2.35574699    -0.53375659    -0.43930990     0.63093249
Ti      1.48138202     7.00531601     2.22592700    -1.18640026     0.05199312     0.84726957
Ti      1.42228901     2.35697701     2.27118902    -0.02290442    -1.06151993     0.61543465
Ti      3.01326898     4.41059099     0.06892798    -0.02949648     0.08548561     0.48130992
Ti      3.03812301     9.16772000     0.00611401    -2.56403615     2.13612523    -0.05752383
Ti      0.01552199     4.75503003     0.07803899     0.17055805     0.57911626    -0.63539696
Ti      0.00551101     0.08063698     4.63888298     1.57864224     0.56964303    -0.00316683
O       4.33991497     5.76828799     0.87834602     0.16796226    -1.26447106    -0.44735592
O       4.40943003     0.88499900     1.00726699     0.02051073    -1.10341067    -1.66271786
O       1.59082900     5.65430898     0.91516199    -0.21526492    -0.76178241    -0.22280905
O       1.44909401     0.83413802     0.99633000    -0.39864429     0.64667562    -0.59992215
O       4.35708000     8.31666301     3.79597701     1.26852081    -0.69908835    -0.42332612
O       4.29564898     3.70032801     3.51915302     0.08839790     1.93586605     2.56213610
O       1.37171199     8.34464903     3.72171302     0.84967072    -0.14712501     0.69101611
O       1.47100898     3.73624200     3.82550098    -0.12955511    -0.10683529    -0.64973215
O       2.95840002     1.38504102     3.28698502    -0.57837321    -0.19559263     0.13968732
O       0.00053600     5.97865298     3.26436602    -0.25134034     0.86429670    -0.71757742
O       5.89833600     1.25991600     3.15235698     0.12825310     0.86971608     0.55270974
O       2.95358001     7.95943101     1.53555199     0.34219056    -0.70813967     0.39326863
O       2.90135398     3.11276399     1.39829902     0.20632519     0.72661922    -0.61135894
O       0.08288202     7.97034799     1.45319402     0.33422014     0.13278030    -0.57988554
O       5.78514498     3.28949898     1.46817900     1.15569999    -0.04252940    -0.56087171
