# total energy = -19074.92751684 eV

CRYSTAL
PRIMVEC
        5.17600016     0.00000000     0.00000000
        0.00000000     5.50899976     0.00000000
        0.00000000     0.00000000     9.26300011
PRIMCOORD
22 1
Ti      1.98237100     3.42248397     3.29884197    -0.70606658     0.57708792     0.33102194
Ti      3.54481399     2.19686798     6.04627898    -0.23556636     0.80675411    -1.09396084
Ti      4.41965998     2.25161898     1.25184901     0.79662113     0.52225501    -1.10511840
Ti      0.65243703     3.24403699     8.08335501     0.87481046     0.47328987     1.14628075
Ti      1.86562699     0.54064500     1.25878499    -0.39570912    -0.09548052    -2.30772329
Ti      3.19415002     5.04734701     7.92989900     0.14025810    -0.43283021     1.63045899
Ti      0.53309702     0.10319300     6.05528902     0.59864123     1.89188114    -0.82516527
Ti      4.43992799     5.02413200     3.42177001     0.94573540    -0.35413591     0.82589058
O       3.63121101     3.47209000     4.37079300    -1.42184732    -1.02906745     1.52355068
O       0.97646601     2.00861899     0.21438198    -0.73601995    -0.52122117    -0.64749966
O       4.27085300     3.70866901     9.01132700    -0.08286874    -0.84862197     0.20014863
O       3.51065999     0.79335502     0.16604503    -0.29922767     0.50469411    -0.34127370
O       1.61623501     4.68225699     9.07511302    -0.34100322     1.03880448     0.45997258
O       4.13310298     0.77071899     4.77303301     0.24164548    -0.17804176     0.44818433
O       1.02218000     4.89195300     4.38091499     0.14520490    -0.98355017     0.68533217
O       0.20752998     3.55725298     2.38531101     0.23223241    -0.88135675    -0.01140696
O       0.12346002     2.06041602     6.61021000     0.06682222    -0.58103456     0.34042447
O       2.67440102     2.11308498     2.10257399     0.16812810    -0.57607336     1.03145421
O       2.39346198     3.56785002     7.08179101    -0.20768016    -1.13701320    -1.51166781
O       0.02758802     0.77826299     2.17868899     0.97644595    -0.18387380     0.08667758
O       2.41322299     0.76931101     6.68043198    -0.79631388     0.00822445    -0.05854867
O       2.81625598     4.65320802     2.34164198     0.03575763     1.97930922    -0.80703230
