# total energy = -4986.45133830 eV

CRYSTAL
PRIMVEC
        2.88000347     0.00000000     0.00000000
        1.32397041     4.31393822     0.00000000
       -0.00000882    -0.00005914     4.56532830
PRIMCOORD
6 1
Ti      2.10198259     2.15693958     2.28266415     0.00000000     0.00000000     0.00000000
Ti      0.00000000     0.00000000     0.00000000     0.00000000     0.00000000     0.00000000
O       1.69802236     0.84071158     0.88971523    -3.78032086     1.75334465     1.97509518
O       2.50594287     3.47316757     3.67561302     3.78032086    -1.75334465    -1.97509518
O       0.40395661     1.31620406     3.17238039     3.77926337    -1.75180790     1.97302416
O       0.92000517     2.99767489     1.39294791    -3.77926337     1.75180790    -1.97302416
