# total energy = -4986.99564405 eV

CRYSTAL
PRIMVEC
        3.59067746     0.00000000     0.00000000
        1.21938615     3.37728620     0.00000000
       -2.40506456    -1.68866610     4.65651196
PRIMCOORD
6 1
Ti      0.91443609     2.53309419     1.16412804     0.00076105    -0.00076105     0.00000000
Ti      1.49056233    -0.84447453     3.49238402    -0.00076105     0.00076105     0.00000000
O       0.30488394     0.84431690     0.75850780     0.00035944     0.00079447    -0.74981469
O       2.10011431     0.84430264     3.89800436    -0.00035944    -0.00079447     0.74981469
O      -0.30485482    -0.84429650     3.08676378     0.00079447     0.00035944    -0.74981469
O       2.70985302     2.53291600     1.56974838    -0.00079447    -0.00035944     0.74981469
