# total energy = -39034.46342718 eV

CRYSTAL
PRIMVEC
        5.93200024     0.00000000     0.00000000
        0.00000000     9.29399984     0.00000000
        0.00000000     0.00000000     9.29399984
PRIMCOORD
46 1
Ti      4.43731301     6.89448402     6.94331602     2.05391007     1.19607455    -1.31657860
Ti      4.46221498     6.95929003     2.25894899    -0.33592838    -0.82095509     0.95749666
Ti      4.51346601     2.39018399     7.06416200    -0.10690342    -0.49448066    -2.74684345
Ti      4.37299400     2.53612600     2.17947900     0.00483290    -0.88562890     1.43912488
Ti      1.48177700     7.03660700     7.08692800    -1.08175220    -0.25044277    -1.33153188
Ti      1.51635498     7.02951100     2.20532597     0.24731142    -1.15071436     0.71195750
Ti      1.50236501     2.22938401     7.01004802    -0.27341353     1.26173618    -0.48020126
Ti      1.37443001     2.16303799     2.60241799     1.06070052    -0.00919067    -0.54800565
Ti      2.98472500     4.79785401     4.66872201    -0.54595982    -0.61205776     1.53814478
Ti      3.00374602     4.78738900     9.02272199    -1.30908537     0.40737139     0.83447010
Ti      2.91486398     9.26534198     4.74852300     0.86119312     1.03805192    -0.93763565
Ti      2.94349300     9.28267502     0.04670000    -0.71633249     1.08906931    -0.20094618
Ti      0.03580498     4.61690201     4.45707402     0.52078588     0.22574243     1.60800862
Ti      0.01072902     4.60873300     9.14274198     1.07054708     0.29141922     1.51901757
Ti      5.87568499     9.10103700     4.73913000    -0.76978137    -0.31411925     0.75457638
Ti      5.80742599     9.25603698     0.08904598     0.24280325     0.55501319    -0.96881928
O       4.59856200     5.63502899     5.40004598    -1.02183031     0.47413757     0.73151280
O       4.48848699     5.49510902     0.82930701    -1.22512417    -0.23561830     0.36167773
O       4.47338898     0.72590498     5.83784701    -0.10522784     0.04257208    -1.82697593
O       4.41115901     0.99137098     0.96905198     0.55404003    -0.37536757     0.06114368
O       1.36829499     5.69490502     5.52463197     1.02939861    -1.01092806    -0.45833068
O       1.57605400     5.70764401     0.69744000     0.65735342    -1.21401469     0.08087331
O       1.37061199     0.96955501     5.49354302     0.28897308    -0.25040549    -0.08778572
O       1.69973500     1.06266502     1.02536400    -1.17406024    -0.81215034     0.50232330
O       4.41737800     8.27206702     8.38662998     0.51137770     1.03851575     0.66816671
O       4.41343600     8.39391903     3.63575198     0.70749920     0.17678963     0.87843752
O       4.48170701     3.58927001     8.46740301    -0.69548443     0.93452050     1.31393216
O       4.43004000     3.62767102     3.90303698     0.17558353     0.21011140    -1.94910081
O       1.38192300     8.40458602     8.49869501     0.67031821    -0.33833236    -0.51443937
O       1.47222599     8.42324402     3.63410799    -0.49590068     0.69847977     0.41147616
O       1.42966500     3.88014202     8.17785299     1.30005951    -0.90296457     1.19111566
O       1.57888600     3.54122299     3.99721698    -0.41825128     0.43150043    -1.53242562
O       3.02655202     6.04244001     7.62742398    -0.89047286    -1.94221308     2.00027658
O       2.91513201     6.06792201     3.19369303     0.46892388    -0.02627617    -0.50088862
O       2.98510601     1.37184699     8.01662501    -0.58422762     1.01595482    -1.55222363
O       3.11471401     1.47197198     3.35206302    -0.20753027     0.20946605    -0.80160599
O       5.92635403     6.05706102     7.94629201    -0.64312904     0.32580054    -0.83182494
O       0.12740001     5.97913099     3.13575399    -0.63366584     0.19194372    -0.62123378
O       5.88228700     1.38876801     8.00783300     1.17926210     0.32015286    -0.34966965
O       2.87899798     7.81772300     6.01657102     0.42923478     0.71108821     0.05072094
O       3.03357902     7.86617299     1.35328901     0.05184451    -0.32669580     0.41129361
O       3.03497102     3.54032201     6.16343602     0.22920056    -2.26925623     1.10166695
O       0.03847701     7.78138800     6.09907102    -0.02900231     1.32313543    -0.78486296
O       5.90161499     7.72491097     1.35549202    -0.00485913     1.62621667    -0.46296355
O       0.07181502     3.32442097     6.12503500    -0.87352260    -1.66266181     0.84748142
O       0.13184599     3.18334502     1.46431902    -0.17370739     0.10961028     0.82999895
