# total energy = -19960.48787627 eV

CRYSTAL
PRIMVEC
        7.60600008     0.00000000     0.00000000
        0.00000000     7.60600008     0.00000000
       -1.89786986    -1.89786986     4.85670466
PRIMCOORD
24 1
Ti      3.87324599     6.41479500     1.26303899    -0.12140574     2.45402118    -0.84057364
Ti      3.76536803     2.79125801     1.25855601     0.06579507    -2.01512085    -0.94821291
Ti      0.01867498     6.76172900     1.21844602     0.37760932    -0.92208175     0.50136839
Ti     -0.01299199     2.94962701     1.15549901     0.15298044     0.62435535     0.55885596
Ti      5.64013020     2.94287322     3.52599083    -0.05476529    -0.39037845     1.03282101
Ti      5.72508522    -0.87854377     3.67613482     0.21007052     0.53148450     0.31545802
Ti      1.80297124     2.76203420     3.56590879     0.44969562     0.86879408     0.59418165
Ti      1.95902323    -0.96986776     3.60217780    -0.36557270    -0.75727578     1.98462472
O       3.77600697     4.64036102     0.88749502     0.42175132    -0.24844245    -0.69460666
O       3.79712099     0.79744699     0.83376702     0.26031118     1.62057618    -0.19658379
O       0.09249002     4.78246702     0.67872697    -0.27883470     2.06794367     0.80300518
O      -0.12331899     1.10072202     0.76512299     0.81068764    -2.47405908     0.73616264
O       5.67345424     4.85670821     4.09299579     0.14601686    -0.72727614     0.10653858
O       5.64877722     1.11070722     4.16751982     0.11894596    -0.96687527    -3.11829395
O       1.86491821     4.67828424     4.16933882     0.11401098    -0.49578241    -0.54695432
O       1.87965622     0.91296025     4.01785781    -0.00386540     0.30375204     0.54997331
O       3.65295924     2.94983624     3.30484882     2.54664469    -0.27534494    -0.91808574
O       3.85598921    -0.87299376     3.24257482     0.22547837    -0.17673127     0.31955147
O       0.01053624     2.92336420     3.06875682    -1.21944794     0.16367083     1.39129746
O       0.06343824    -0.88507880     3.28643981    -0.21074800     0.25153729    -0.54160771
O       5.81748999     6.47969102     1.82237702    -0.09147089     0.17343126    -2.19799551
O       5.67374799     2.66861103     1.57150800    -0.44047333     1.08774545     1.05867732
O       2.01493398     6.55613200     1.68944901    -1.90289498     0.04573891    -0.49359491
O       1.93918099     2.93098198     1.55178397    -1.21051850    -0.74368210     0.54399395
