# total energy = -19070.16398453 eV

CRYSTAL
PRIMVEC
        5.17600016     0.00000000     0.00000000
        0.00000000     5.50899976     0.00000000
        0.00000000     0.00000000     9.26300011
PRIMCOORD
22 1
Ti      1.67532501     3.28273303     3.17134100     1.82261380     1.33758761    -0.61034464
Ti      3.41646098     2.54934998     5.93940698    -0.65689216     0.16831862     0.26828932
Ti      4.58709600     2.18762902     1.46156201    -3.38584407    -1.41565558     0.54459148
Ti      0.92110502     2.29561002     7.79958302    -1.20567659     2.01267804    -0.07788491
Ti      1.76710101     0.45689201     1.15352899     1.92014632    -0.13084426    -0.40863458
Ti      3.47003097     0.05336901     7.76953300    -0.89245903    -3.20767247     2.09997654
Ti      0.81567598     5.39681799     6.50239299    -0.09340590    -1.98446223    -0.38844884
Ti      4.53163801     4.98453700     3.69210100    -0.49771459     1.55197115    -0.38952536
O       3.29831401     3.73228900     4.18579199     0.73228568    -1.63093670     2.62911028
O       0.87607802     2.22739499     0.50471402     1.37735796    -0.61004099    -3.37122375
O       4.90566901     4.04154801     7.76476702    -1.46992388     1.38065386    -1.90411574
O       3.68706800     0.41532900     0.29909299     0.54360494     1.41477575     0.98916417
O       1.64229101     5.44636200     8.59867898    -1.02485187     1.73696184    -0.46307462
O       4.62669602     0.92270700     5.41712898    -1.28299587    -1.06099517    -1.71064787
O       0.89926800     4.54433202     4.43912401    -0.11931929    -0.47711491     1.83350885
O       0.15518499     3.72408299     2.16061198    -1.36592683     1.32278576     1.27539234
O       4.13028501     1.69141898     7.51668502     1.31064912     2.32823325     0.95239353
O       2.57113599     1.97529199     2.28846602     1.40488651    -1.15065162    -0.65197621
O       2.05348502     3.92491602     6.82924800     2.19193748    -0.91355777    -0.75361273
O       0.05115498     0.88536498     2.53361098     0.56007749     0.13952302    -0.10169360
O       1.86606398     1.45838699     6.22666598     0.82543112    -0.61450520     0.04570395
O       2.57737499     4.70271599     2.17869100    -0.69398008    -0.19705173     0.19305238
