# total energy = -19516.70549186 eV

CRYSTAL
PRIMVEC
        5.17600016     0.00000000     0.00000000
        0.00000000     5.50899976     0.00000000
        0.00000000     0.00000000     9.26300011
PRIMCOORD
23 1
Ti      1.96543903     3.22213302     3.39379802    -0.83850879    -1.16420648     3.44659978
Ti      3.37286398     2.33723399     5.90820399    -1.62015375     0.09352957    -2.65554200
Ti      4.33452499     2.12194198     1.56863801     0.96402855    -1.02620170    -1.12579496
Ti      0.69923201     3.38580897     7.79512697     0.09822620     1.80127106     1.20242903
Ti      2.03774200     0.17683902     1.42961298    -1.60691230    -0.26720765    -1.82156839
Ti      3.10909600     5.21236601     7.87815600     1.18264284    -0.29362163     0.68696611
Ti      0.69918698     0.57336000     5.85891102     0.28717330    -0.64057491    -3.03404632
Ti      4.57171101     4.83585000     3.40356800     1.88200785     0.86545087     2.53279775
O       1.88338200     1.83784799     4.61678803    -0.34814652    -0.04027018     1.70792327
O       3.71279702     3.59280798     4.43241399    -0.32310551    -1.52789688     1.06227095
O       4.80012302     2.89057501     9.25373501     0.26876625     0.42030507    -1.50756947
O       3.42431398     0.65623800     0.28721497     0.72806984     0.45326560    -0.86518630
O       1.72846202     4.63323401     8.96236800    -0.73527253    -0.66926483     1.49428997
O       4.35955698     0.67212702     4.77457699    -0.66174229     0.87309811    -0.14178636
O       1.10267701     4.66135200     4.53339699    -0.10518824    -0.25057184    -0.73578778
O       0.37922001     3.24906301     2.44537797    -0.22310319     0.99195691    -0.02575012
O       5.13574602     2.37275702     6.47147502     0.01333349    -0.89860680     0.19108651
O       2.81115698     1.50424100     2.40984102    -0.81556502     2.55082556     0.67099801
O       2.40087501     3.77051898     6.75268298     0.57945359    -0.75902593     0.78360234
O       0.18720698     0.67081800     2.12291800     1.08576878    -0.71304610    -0.77656060
O       4.99036600     4.98758798     7.13583298    -0.77006085    -0.56177596     1.16554886
O       2.24046498     1.02445900     7.04926000     0.23253914     1.27434590    -0.29609066
O       2.94029100     4.48108698     2.40964798     0.72574916    -0.51177776    -1.95882935
