# total energy = -4987.69546701 eV

CRYSTAL
PRIMVEC
        3.24967493     0.00000000     0.00000000
        0.25442894     5.08539268     0.00000000
       -0.00000140    -0.00006608     5.09334648
PRIMCOORD
6 1
Ti      1.75205111     2.54266313     2.54667312     0.00000000     0.00000000     0.00000000
Ti      0.00000000     0.00000000     0.00000000     0.00000000     0.00000000     0.00000000
O       1.67442155     0.99105513     0.99261814     0.18579235    -0.68051932    -0.69318972
O       1.82968061     4.09427113     4.10072805    -0.18579235     0.68051932     0.69318972
O       0.07762886     1.55158121     3.53929230    -0.18610989     0.68107314    -0.69353965
O       0.17679855     3.53374527     1.55405389     0.18610989    -0.68107314     0.69353965
