# total energy = -4972.66942646 eV

CRYSTAL
PRIMVEC
        5.29017894     0.00000000     0.00000000
       -0.00000749     2.84855824     0.00000000
       -2.64511884    -1.42434321     5.70705419
PRIMCOORD
6 1
Ti     -0.00022643     2.13651683     1.42676332    -0.00952825    -0.01135657    18.33861684
Ti      2.64527864    -0.71230164     4.28029042     0.00952825     0.01135657   -18.33861684
O       0.00005616     0.71212840     0.92963243     0.00782773     0.01178826   -11.96223030
O       2.64499594     0.71208668     4.77742143    -0.00782773    -0.01178826    11.96223030
O      -0.00002160    -0.71214771     3.78315953    -0.00217464     0.00013113    -2.12633961
O       2.64507358     2.13636279     1.92389433     0.00217464    -0.00013113     2.12633961
