# total energy = -19960.60569414 eV

CRYSTAL
PRIMVEC
        5.02047993     0.00000000     0.00000000
        0.00002752     5.34330886     0.00000000
        0.00000000     0.00000000     8.98555514
PRIMCOORD
24 1
Ti      1.81969881     3.16643989     3.33357693    -0.01423003     0.28458549    -0.28745047
Ti      3.20080864     2.17686902     5.65197846     0.01423003    -0.28458549     0.28745047
Ti      4.32985088     2.17687086     1.15916486    -0.01217778    -0.28429290     0.28790375
Ti      0.69065656     3.16643826     7.82639064     0.01217778     0.28429290    -0.28790375
Ti      1.81968515     0.49478556     1.15920089    -0.01390325     0.26909381     0.28757542
Ti      3.20082229     4.84852351     7.82635460     0.01390325    -0.26909381    -0.28757542
Ti      0.69064291     0.49478357     5.65194243     0.01222920     0.26878322     0.28739262
Ti      4.32986454     4.84852550     3.33361297    -0.01222920    -0.26878322    -0.28739262
O       1.58902328     1.88146993     4.58526010    -0.55065337    -0.49796245    -0.05449275
O       3.43148416     3.46183903     4.40029529     0.55065337     0.49796245     0.05449275
O       0.92126541     1.88149146     0.09251133     0.55098864    -0.49868287    -0.05419682
O       4.09924209     3.46181751     8.89304381    -0.55098864     0.49868287     0.05419682
O       3.43147051     0.79018455     0.09248217     0.55134397     0.49832651    -0.05416571
O       1.58903694     4.55312437     8.89307296    -0.55134397    -0.49832651     0.05416571
O       4.09922843     0.79016303     4.58528926    -0.55112568     0.49848824    -0.05393457
O       0.92127897     4.55314594     4.40026614     0.55112568    -0.49848824     0.05393457
O       0.18242237     3.25010336     2.42722267    -0.20180493     0.12475177    -0.13000685
O       4.83808508     2.09320556     6.55833272     0.20180493    -0.12475177     0.13000685
O       2.69266635     2.09315576     2.06558359    -0.20184761    -0.12511558     0.13000377
O       2.32784109     3.25015316     6.91997164     0.20184761     0.12511558    -0.13000377
O       0.18240871     0.57844887     2.06555490    -0.20165452     0.12505131     0.12990838
O       4.83809874     4.76486004     6.92000034     0.20165452    -0.12505131    -0.12990838
O       2.32782744     0.57849867     6.55836137     0.20213198     0.12492172     0.13008167
O       2.69268001     4.76481024     2.42719397    -0.20213198    -0.12492172    -0.13008167
