# total energy = -19920.26921950 eV

CRYSTAL
PRIMVEC
        6.34591512     0.00000000     0.00000000
        1.33745342     6.62022393     0.00000000
        0.00000000     0.00000000    11.41557548
PRIMCOORD
24 1
Ti      3.09266257     3.92313857     4.23509723    -0.19102635    -1.72528671     0.72076250
Ti      4.59070566     2.69708552     7.18047870     0.19102635     1.72528671    -0.72076250
Ti      6.01782186     2.69708789     1.47264513     0.11827465    -0.19157297    -0.31162168
Ti      1.66554640     3.92313645     9.94293094    -0.11827465     0.19157297     0.31162168
Ti      2.42393601     0.61302685     1.47269090    -0.19102635    -1.72528671    -0.72076250
Ti      5.25943224     6.00719743     9.94288516     0.19102635     1.72528671     0.72076250
Ti      0.99681973     0.61302429     7.18043293    -0.11827465     0.19157297    -0.31162168
Ti      6.68654852     6.00719999     4.23514300     0.11827465    -0.19157297     0.31162168
O       2.47946217     2.33109342     5.82528096     1.75582448     1.90993312    -0.50992759
O       5.20390606     4.28913067     5.59029497    -1.75582448    -1.90993312     0.50992759
O       1.63541789     2.33112008     0.11752976    -0.91123735     0.39508306     0.74626168
O       6.04795041     4.28910407    11.29804585     0.91123735    -0.39508306    -0.74626168
O       4.53517948     0.97901876     0.11749271    -1.75582448    -1.90993312    -0.50992759
O       3.14818875     5.64120533    11.29808290     1.75582448     1.90993312     0.50992759
O       5.37922383     0.97899216     5.82531802     0.91123735    -0.39508306     0.74626168
O       2.30414434     5.64123200     5.59025791    -0.91123735     0.39508306    -0.74626168
O       1.04407669     4.02679540     3.08363184     0.48500794     1.21253527     1.42403558
O       6.63929154     2.59342869     8.33194409    -0.48500794    -1.21253527    -1.42403558
O       3.92745774     2.59336686     2.62419244     0.62789782     1.43034301     0.61097121
O       3.75591049     4.02685723     8.79138330    -0.62789782    -1.43034301    -0.61097121
O       0.37535012     0.71668348     2.62415596     0.48500794     1.21253527    -1.42403558
O       7.30801812     5.90354067     8.79141978    -0.48500794    -1.21253527     1.42403558
O       3.08718391     0.71674525     8.33198050    -0.62789782    -1.43034301     0.61097121
O       4.59618432     5.90347883     3.08359537     0.62789782     1.43034301    -0.61097121
