# total energy = -39040.39576283 eV

CRYSTAL
PRIMVEC
        7.60629642     0.00000000     0.00000000
       -0.00001693     7.60629642     0.00000000
       -3.80320786    -3.80321633     9.70732590
PRIMCOORD
46 1
Ti      1.90146844     4.71676630     6.05946131     0.00000386    -0.00260581     0.00723869
Ti      3.82913034     6.66367784     1.19291345     0.00157737    -0.00279659    -0.00182651
Ti      1.90149419     0.95481816     5.91564992    -0.00002545    -0.02605171    -0.00015709
Ti      3.79783469     2.84273129     1.24644174    -0.00915416     0.01341114    -0.01626609
Ti     -1.90170877     4.80128938     6.06643626    -0.00001517    -0.00626964    -0.00213993
Ti     -0.02615658     6.66360231     1.19294051    -0.00151489    -0.00273386    -0.00184785
Ti     -1.90167931     0.96293203     6.13402260     0.00008176    -0.00608426    -0.00328870
Ti      0.00503992     2.84268916     1.24646204     0.00904849     0.01332192    -0.01629129
Ti      3.88869397     0.94853403     8.54752134    -0.00481259     0.00581944    -0.00937810
Ti      5.70474030     2.82747679     3.66614581     0.00013524     0.00563483    -0.02141627
Ti      3.78395024    -2.83527459     8.48274420    -0.00084204    -0.00477171     0.01685590
Ti      5.70474451    -0.94304593     3.64542735     0.00001106     0.00347073    -0.01193224
Ti     -0.08564707     0.94861869     8.54750875     0.00487996     0.00581867    -0.00946295
Ti      1.90158466     2.90542485     3.68929555     0.00008048    -0.00216050     0.00995403
Ti      0.01932603    -2.83518705     8.48270674     0.00084744    -0.00480745     0.01682711
Ti      1.90157725    -0.97279572     3.49752367    -0.00001851    -0.01141853    -0.01138331
O       1.90156530     2.84573806     5.64319665     0.00000103    -0.00822342    -0.00610637
O       3.85559537     4.75022050     0.80608974    -0.00572379     0.00678617     0.00598296
O       3.76619606     0.95504119     0.75930700    -0.00732508    -0.00489821     0.02039246
O      -1.90158191     2.82467506     5.72603010     0.00001080    -0.00601150     0.00541320
O      -0.05258391     4.75019282     0.80609448     0.00562866     0.00676200     0.00603567
O      -1.90157206    -0.93628001     5.67109736     0.00000154     0.00772514    -0.00606678
O       0.03692219     0.95500784     0.75932721     0.00727185    -0.00494038     0.02045210
O       3.65229398     2.82858269     8.86047382    -0.00663191     0.00295214    -0.00756136
O       5.70466022     4.75078551     4.09542259    -0.00001208     0.00520134    -0.01766811
O       3.70186614    -0.92788606     8.91520557    -0.00657740    -0.00026122    -0.01117530
O       5.70466231     0.95101324     4.10232506     0.00006094     0.00328407    -0.01071173
O       0.15086170     2.82860834     8.86046669     0.00657251     0.00292926    -0.00756162
O       1.90145608     4.83165296     4.07381383     0.00001003    -0.01082023     0.00251583
O       0.10132954    -0.92784490     8.91520611     0.00651723    -0.00019360    -0.01119664
O       1.90149732     0.87580794     4.03041777     0.00002854     0.00242995    -0.00063841
O       3.79023951     2.85523344     3.25546124    -0.00310075    -0.00357255     0.00047308
O       1.90158753    -2.80729025     8.06120416    -0.00004551     0.00720089    -0.00023243
O       3.81697199    -0.95291780     3.18152112    -0.00054790    -0.00522525     0.00894359
O      -1.90161467     1.00608022     8.11328896    -0.00002957     0.00762667     0.02896426
O       0.01278247     2.85518608     3.25546154     0.00313186    -0.00354607     0.00045997
O      -1.90159145    -2.87740014     8.07906208    -0.00004345     0.00294803     0.00774545
O      -0.01388535    -0.95292955     3.18153831     0.00058004    -0.00522963     0.00896621
O       3.78432499     4.86274717     6.46322440     0.00334295    -0.00114491    -0.00259167
O       5.70467785     6.70324397     1.63066479     0.00002854     0.01181062     0.00218930
O       3.66408552     0.77672625     6.54685517     0.00012933     0.00630949     0.01331086
O       5.70465900     2.80419735     1.69100336     0.00006351    -0.00376178    -0.00550679
O       0.01874632     4.86273357     6.46326286    -0.00329050    -0.00112306    -0.00269297
O       1.90154364     6.62765542     1.52664047     0.00001054    -0.00100350     0.00814963
O       0.13901576     0.77669669     6.54690248    -0.00034016     0.00631592     0.01340548
O       1.90151372     2.88643423     1.62664673    -0.00000334     0.00189722    -0.00917576
