# total energy = -19073.34990839 eV

CRYSTAL
PRIMVEC
        5.17600016     0.00000000     0.00000000
        0.00000000     5.50899976     0.00000000
        0.00000000     0.00000000     9.26300011
PRIMCOORD
22 1
Ti      1.79314802     3.38105098     3.22406198    -0.08374909     0.67546273     0.21465377
Ti      3.75838500     2.37610603     5.96262003    -1.91715458    -0.38210952    -0.26388064
Ti      4.27578298     2.21848402     1.19558101     0.97884325     0.40458380    -1.10923808
Ti      0.85606501     3.19344500     8.20499502    -0.50272413     0.98037614    -0.01258838
Ti      1.77596103     0.50081197     1.34827399    -1.08962852    -0.21903313    -2.00039125
Ti      3.16370799     5.08951799     7.93455200     1.53801854    -0.88216382     0.70276940
Ti      0.65332398     0.14972800     6.06680799     0.62919263     2.03445709    -2.16622952
Ti      4.36489098     5.01586297     3.45639900     0.57325492    -0.01410045     0.25967586
O       3.41257799     3.47390302     4.36371800    -0.15047387    -0.39311462     1.43309050
O       1.01286600     2.05508700     0.30463798    -0.97985318    -0.47047220     0.06493426
O       4.34076399     3.69827100     8.95528401     0.28388692    -0.32772861     0.91445740
O       3.27870498     0.80873799     0.18549700     2.16737572     1.25864854    -1.14032196
O       1.64786298     4.89380798     8.88301200    -2.87972840    -0.89249323     0.64299406
O       4.42410300     0.90550800     4.71083902    -0.28143923     0.12712002     0.91263809
O       0.95540402     4.82663501     4.30505902     0.09344369    -1.37806501     1.42184294
O       0.00143799     3.59833301     2.29416298     0.91728150    -1.17990590     0.70341578
O       0.26134800     2.19749701     6.60329598     0.28759316    -0.92173671     0.49630871
O       2.67732800     1.83021000     2.27282899     0.09878593     2.05548924     1.46784977
O       2.61373900     3.14425099     7.48983700     0.49651749     0.38314336    -2.80073199
O       5.12693998     0.65983699     2.01714800     0.38101115     0.29618811     0.50096524
O       2.50077198     0.66474198     6.42628402    -0.34790638    -0.55427888     0.56380842
O       2.71130801     4.78695100     2.41937198    -0.21254803    -0.60026668    -0.80602289
