# total energy = -39482.82096471 eV

CRYSTAL
PRIMVEC
        7.60629642    -0.00000847    -0.00005503
       -0.00000847     7.60629642    -0.00005503
       -3.80314186    -3.80314186     9.70738094
PRIMCOORD
47 1
Ti      1.90145158     4.64758257     6.09855624     0.00019000     0.29537153     0.03541773
Ti      3.82109072     6.65567890     1.21038005     0.10805528     0.00022986    -0.11778768
Ti      1.90144520     1.05719526     6.09867936     0.00005579    -0.29568134     0.03533417
Ti      3.79442593     2.85252336     1.21421866     0.03325106     0.00012161     0.04279783
Ti     -1.90170883     4.76359666     6.06156628     0.00018383    -0.02754732    -0.00674066
Ti     -0.01822605     6.65566998     1.21041644    -0.10739142     0.00000514    -0.11763855
Ti     -1.90172422     0.94148602     6.06156575     0.00008639     0.02776792    -0.00682371
Ti      0.00841261     2.85252050     1.21426251    -0.03329888     0.00010979     0.04277726
Ti      3.80477249     0.94661865     8.50339879     0.03593941    -0.02109951    -0.03449239
Ti      5.70491097     2.85222117     3.63624964     0.00022677    -0.00006119     0.02233981
Ti      3.80477839    -2.84852472     8.50340360     0.03556197     0.02121187    -0.03451142
Ti      5.70483139    -0.95095408     3.63724111    -0.00023988     0.00001363     0.10186380
Ti     -0.00133243     0.94661256     8.50340947    -0.03625334    -0.02109411    -0.03443814
Ti      1.90175296     2.85221201     3.66604081     0.00040238    -0.00020697     0.01324916
Ti     -0.00130595    -2.84853339     8.50343277    -0.03550952     0.02114605    -0.03476133
Ti      1.90167762    -0.95083459     3.51988620    -0.00023191     0.00020980    -0.05768838
O       1.90162188     2.85241562     5.63456837    -0.00001697    -0.00177740     0.21869863
O       3.80222501     4.75601738     0.79065475    -0.00623776    -0.02677522    -0.00563329
O       3.80222950     0.94871290     0.79067822    -0.00616808     0.02673691    -0.00551708
O      -1.90152868     2.85237389     5.65825304    -0.00007122    -0.00004782     0.04396614
O       0.00102017     4.75602049     0.79068374     0.00614854    -0.02676314    -0.00557544
O      -1.90154231    -0.95078110     5.64789276    -0.00015170     0.00009796    -0.08166701
O       0.00102925     0.94871811     0.79070910     0.00611203     0.02671120    -0.00552582
O       3.79529819     2.85236321     8.90468157    -0.04676736    -0.00001928    -0.06370296
O       5.70467220     4.75250626     4.06280323     0.00003214    -0.00792414    -0.02079509
O       3.80766186    -0.95079565     8.92081112     0.05405052     0.00006582     0.06650084
O       5.70467630     0.95219781     4.06283073     0.00002391     0.00803213    -0.02080769
O       0.00776119     2.85236444     8.90469879     0.04687483    -0.00002417    -0.06378652
O       1.90150082     4.85381839     4.12344296    -0.00025171    -0.07983201    -0.03309962
O      -0.00460500    -0.95079173     8.92083659    -0.05403021     0.00006531     0.06648541
O       1.90151101     0.85091228     4.12342602    -0.00023500     0.08047016    -0.03292145
O       1.90158251     0.92199510     8.07942461    -0.00007379     0.03755046     0.08109185
O       3.78397793     2.85240309     3.23762902     0.05670262     0.00001517     0.05389137
O       1.90158192    -2.82349721     8.07944694    -0.00001234    -0.03785925     0.08096381
O       3.81267309    -0.95073513     3.21756739     0.06937327     0.00005168    -0.16310570
O      -1.90157497     0.95681967     8.05769247    -0.00001208     0.03690126    -0.03347423
O       0.01915682     2.85240347     3.23764197    -0.05690959     0.00001183     0.05387543
O      -1.90156715    -2.85828678     8.05772417    -0.00003471    -0.03690897    -0.03362259
O      -0.00950448    -0.95073043     3.21761131    -0.06969415     0.00005425    -0.16297612
O       3.77995286     4.81514674     6.46324127     0.07975102     0.11938511     0.06459333
O       5.70470669     6.65544640     1.63190658    -0.00009616    -0.00000874    -0.09239623
O       3.77996959     0.88948957     6.46325235     0.07943426    -0.11916939     0.06462316
O       5.70471784     2.85230903     1.64558872     0.00002443     0.00005194     0.08264634
O       0.02314988     4.81514898     6.46326761    -0.07957336     0.11935811     0.06464990
O       1.90156109     6.65545562     1.60027223     0.00011801     0.00008459    -0.04073323
O       0.02314442     0.88949198     6.46328090    -0.07935893    -0.11914008     0.06466275
O       1.90156802     2.85230744     1.64498909     0.00002237     0.00010901     0.00979385
