# total energy = -19073.44912862 eV

CRYSTAL
PRIMVEC
        5.17600016     0.00000000     0.00000000
        0.00000000     5.50899976     0.00000000
        0.00000000     0.00000000     9.26300011
PRIMCOORD
22 1
Ti      1.84802502     3.48070400     3.42563200     0.63397360     0.49312671    -0.86858402
Ti      3.60858598     2.14283898     5.85027898     0.61286715     0.09733712     0.04930041
Ti      4.33436401     2.22608301     1.40086400     0.05390217     1.56762069    -3.02183306
Ti      0.70425999     3.21685998     7.87750701    -2.08335821    -2.44749803     4.32942283
Ti      1.79967399     0.52124001     1.19116899    -0.21570329     1.91223272    -1.45072956
Ti      3.23168102     5.11011701     8.10009701     0.81494462    -0.67877817     1.26024776
Ti      0.83015200     5.50640902     6.10810001    -0.29249600     1.55559384    -1.07483028
Ti      4.41095501     5.02708100     3.31831601     0.08504184     0.21153862     0.97433173
O       3.55639900     3.38815498     4.35552401     0.08056323    -0.45866543     1.35260954
O       0.94443502     1.92018299     0.11552199    -0.06128330    -0.46749666    -0.13317342
O       4.36171401     3.62117601     9.05542901    -1.16537814     1.18953315    -0.90704131
O       3.52961300     0.95765202     0.06050401    -0.57248436    -0.66572210     0.63976398
O       1.78549701     4.59222600     9.20372802    -0.26085908     0.27342998    -1.28863918
O       4.38567600     0.67458098     4.94097900    -0.63958863    -0.01455219    -0.44870729
O       1.18683900     5.10316500     4.29699600    -0.30347179    -1.39808491     0.98097675
O       0.13248498     3.69198601     2.38118798     0.16279640    -0.90401615     0.15884410
O       5.00322400     1.64461701     7.05724899     0.35345997     0.17331504    -0.82153487
O       2.42039001     2.20091698     2.13311699     2.19558999    -0.52662332     0.51907095
O       1.93707798     3.69762900     6.69733797     1.70321661     1.67428680    -1.56494134
O       0.18425899     0.95125702     2.18515300    -0.81433912    -1.68800056     1.55083447
O       2.41436602     0.96461599     6.71563301    -0.73787500    -1.28631645     0.34829256
O       2.74491902     4.74198798     2.39560600     0.45048135     1.38773879    -0.58368074
