# total energy = -19514.00667566 eV

CRYSTAL
PRIMVEC
        5.93400000     0.00000000     0.00000000
        0.00000000     9.29699974     0.00000000
        0.00000000     0.00000000     4.64899994
PRIMCOORD
23 1
Ti      4.34913499     7.29550602     2.16826499     5.05095332    -0.82095611    -0.48555661
Ti      4.31581402     2.11018700     2.38458202     0.07442292     2.47572721     2.55258702
Ti      1.73698897     6.91255600     2.41195202    -5.42981682    -1.04680499     0.71562158
Ti      1.25919102     2.46996598     2.20806801    -1.54484945     0.03646031     0.44698619
Ti      2.95574001     4.53215502     0.29176198     2.40714532    -0.37603478    -1.22034217
Ti      3.03824298     8.98978499     4.53835898    -2.01145368     2.59629991    -2.07857364
Ti      0.02926699     4.73264202     4.35822303    -2.02031833     0.07850764     0.16561819
Ti      0.09644398     0.14923598     0.16591998    -0.22426867    -1.65829505    -0.31936738
O       4.71245798     5.75459098     0.62177300    -2.72182944    -0.00021932     1.23573332
O       4.44692001     0.87431200     1.20440901     0.63309094    -3.34230911    -4.17191596
O       1.61521000     5.62552898     1.01946198     0.32253498    -0.72781273    -1.31006728
O       1.44322501     0.99292798     0.94783102     0.63193677     0.25957070     0.32108540
O       4.48671202     8.27461998     3.76956800     0.81464303    -0.61299724    -0.19651617
O       4.29700600     3.58896203     3.86683300     0.97023699     1.43150310    -0.04371443
O       1.30271802     8.30858703     3.59782500     1.62992317     1.08331801     2.74670667
O       1.71559899     4.02018899     3.56840301    -0.52325851    -0.65124216     1.12388669
O       3.09956298     1.11226898     3.25582701    -1.52523193     0.62017088     0.98083277
O       0.11039098     5.96332801     3.05306401    -0.90627461    -0.04338224     0.43013723
O       5.90068702     1.42585900     3.40539298     0.69870628     1.07878412    -0.98064559
O       2.74563801     8.04770698     1.39873602     1.75687529    -0.70382921     0.60565468
O       2.85106002     3.17230500     1.53485401     0.46072412     0.09566873    -0.55884079
O       0.12109602     7.83075198     1.51253998    -1.12299477     1.43085518    -1.33856720
O       5.70717701     3.30727500     1.38536000     2.57910333    -1.20298259     1.37925723
