# total energy = -19518.88241892 eV

CRYSTAL
PRIMVEC
        7.60600008     0.00000000     0.00000000
        0.00000000     7.60600008     0.00000000
       -1.89786986    -1.89786986     4.85670466
PRIMCOORD
23 1
Ti      3.80131599     6.61052401     1.15259102     0.82937879     0.65574442     0.35340392
Ti      3.82614398     2.81079799     1.19988698    -0.02650551    -0.46347160     1.59582236
Ti      0.08955298     6.74541500     1.19888599    -0.90910899    -0.33490817     0.05751071
Ti     -0.02433099     2.87341199     1.16895302    -0.09519719    -0.14641255     0.38068205
Ti      5.59809823     2.88533922     3.73821181    -1.29654430    -1.07105153    -0.36151755
Ti      5.74339221    -1.02250576     3.54444181    -0.74362039     1.74617976    -0.16358136
Ti      1.86248622     2.79826522     3.69990779     1.55769443     0.94737139    -0.59215022
Ti      1.91497922    -0.90624276     3.60693183     0.74494708    -1.25987290     0.36089277
O       3.93667900     4.70082301     0.88778998    -0.73089959    -0.17400436    -0.64715436
O       3.74303802     0.87722401     0.80576899     0.21874671     1.01141837    -0.80677082
O      -0.20378399     4.77495403     0.87529198     0.96217375     0.23257642    -0.20256058
O       0.00835301     0.94279600     0.72859098     0.16053023    -0.30661856     0.29068620
O       5.70240521     4.80401925     3.98939781     0.55785992    -0.78516455     0.05875821
O       5.66324223     0.98962623     4.16106481     0.75557937     0.08582397    -1.20468903
O       1.81021822     4.77944224     4.00347683    -0.15596112    -0.84639590     0.04912994
O       1.96786223     0.92284723     4.11012981    -0.69574489     0.51780006     0.06050168
O       3.75284023     2.87600623     3.39450881     0.10589041     0.18132892    -1.07272557
O       3.83190624    -0.72450880     3.11043381    -0.39863709    -0.80349395     0.85118536
O       0.06835520    -0.77202479     3.12073181    -0.50498490    -0.04886075     0.62592141
O       5.71208402     6.64675598     1.62748802     0.51962760     0.09070881    -0.29496195
O       5.68575502     2.66120498     1.73118300     0.81419822     0.31844153     0.26291031
O       1.94612702     6.51989098     1.57894998    -0.68570884    -0.00477711    -0.00315243
O       1.89563197     2.71931600     1.67957298    -0.98371318     0.45763828     0.40185869
