# total energy = -19958.48790601 eV

CRYSTAL
PRIMVEC
        7.60600008     0.00000000     0.00000000
        0.00000000     7.60600008     0.00000000
       -1.89786986    -1.89786986     4.85670466
PRIMCOORD
24 1
Ti      3.68075401     6.54931800     1.38061101    -0.93030723     0.69089810    -1.23211346
Ti      3.75614701     2.96528002     1.27299303     0.96375807    -1.63032658    -0.40860449
Ti     -0.10349702     6.61521300     1.09865600     0.99605319    -1.08459893     1.39483041
Ti      0.07582401     2.84330000     1.13613398    -0.09856970     0.79172909    -0.84500828
Ti      5.79354821     2.89512021     3.53996281    -0.61496800     0.34245564     1.09076521
Ti      5.78132221    -1.00508376     3.65989379     1.19821242    -0.12467618    -0.42171275
Ti      1.81592624     2.93672323     3.68918783     0.97515191     0.28905767     0.44276264
Ti      1.84600520    -0.94726977     3.69607883    -0.67154206    -0.23439805     0.51144172
O       3.70344201     4.77722398     0.75796899     0.50112388     0.53843240    -0.20816173
O       3.56066099     1.13138101     0.77753400     1.04737963    -2.03125813     1.54990450
O       0.07665402     4.73775302     0.69020800    -0.45041502    -0.32868635    -0.38300221
O       0.32451202     0.84100098     0.70029301    -1.34898222     1.95182026     0.57677579
O      -1.39622475     4.75421022     4.13753881    -1.43515304    -0.92726767    -1.45627568
O       5.96660023     0.97650523     4.00913284    -1.27476345    -1.11338141    -0.44612744
O       1.49447921     4.80350721     4.21900681     1.06068046    -1.17421142     0.37465486
O       1.79301720     0.94905320     4.08307382     1.01969526     1.35818163    -0.96993849
O       3.85857122     3.19625620     3.43069083    -0.56476899    -1.01704960    -1.88300158
O       3.78545623     6.26921421     3.39928881     0.51427147     1.24753134    -1.05168134
O       0.04669121     2.74612824     3.16462183     0.86098024     0.06409737    -1.15974819
O       0.02738021    -1.11268280     3.09571279    -2.40018174     1.49121390     0.19438113
O       5.63767000     6.54943600     1.47859802    -0.49289994     0.66142939     0.94201578
O       5.81475298     3.12345602     1.48529502    -0.77259930    -1.21943843     1.15552567
O       1.74236901     6.29211002     1.75448902     3.36244188     1.21713832    -0.31981064
O       1.97076101     2.96619999     1.34550698    -1.44459747     0.24130815     2.55212911
