# total energy = -19940.51251558 eV

CRYSTAL
PRIMVEC
        6.46192676     0.00000000     0.00000000
        0.00003005     5.62700000     0.00000000
        0.00000000     0.00000000    10.62022801
PRIMCOORD
24 1
Ti      2.34215544     3.33455487     3.94002898     0.29836249    -0.56414858     0.57204907
Ti      4.11980143     2.29244489     6.68019945    -0.29836249     0.56414858    -0.57204907
Ti      5.57300686     2.29244670     1.37004280     0.29918807     0.56423137    -0.57228972
Ti      0.88895000     3.33455324     9.25018575    -0.29918807    -0.56423137     0.57228972
Ti      2.34214066     0.52105499     1.37008539     0.29836249    -0.56414858    -0.57204907
Ti      4.11981621     5.10594495     9.25014316    -0.29836249     0.56414858     0.57204907
Ti      0.88893522     0.52105294     6.68015687    -0.29918807    -0.56423137    -0.57228972
Ti      5.57302165     5.10594695     3.94007156     0.29918807     0.56423137     0.57228972
O       2.04525122     1.98136227     5.41942122     0.94821574     1.12230906    -0.56868452
O       4.41670565     3.64563749     5.20080721    -0.94821574    -1.12230906     0.56868452
O       1.18577109     1.98138501     0.10934121    -0.94805736     1.12279911    -0.56936561
O       5.27618584     3.64561481    10.51088691     0.94805736    -1.12279911     0.56936561
O       4.41669087     0.83213743     0.10930674    -0.94821574    -1.12230906    -0.56868452
O       2.04526600     4.79486233    10.51092139     0.94821574     1.12230906     0.56868452
O       5.27617100     0.83211475     5.41945570     0.94805736    -1.12279911    -0.56936561
O       1.18578575     4.79488507     5.20077273    -0.94805736     1.12279911     0.56936561
O       0.23479491     3.42266040     2.86878864    -0.64752126     0.02176877     0.09952281
O       6.22716196     2.20433936     7.75143979     0.64752126    -0.02176877    -0.09952281
O       3.46576475     2.20428706     2.44135936    -0.64812830    -0.02167209    -0.09977349
O       2.99619212     3.42271270     8.17886889     0.64812830     0.02167209     0.09977349
O       0.23478006     0.60916034     2.44132542    -0.64752126     0.02176877    -0.09952281
O       6.22717681     5.01783942     8.17890283     0.64752126    -0.02176877     0.09952281
O       2.99617727     0.60921264     7.75147366     0.64812830     0.02167209    -0.09977349
O       3.46577960     5.01778712     2.86875471    -0.64812830    -0.02167209     0.09977349
