# total energy = -4988.07503387 eV

CRYSTAL
PRIMVEC
        3.50677279     0.00000000     0.00000000
        0.00000000     3.66305814     0.00000000
        0.00000000    -0.00006402     4.76960653
PRIMCOORD
6 1
Ti      1.75338624     1.83149701     2.38480321     0.00000000     0.00000000     0.00000000
Ti      0.00000000     0.00000000     0.00000000     0.00000000     0.00000000     0.00000000
O       1.75338624     0.71386359     0.92952604     0.00000000    -0.51147411    -0.30855923
O       1.75338624     2.94913042     3.84008033     0.00000000     0.51147411     0.30855923
O       0.00000000     1.11760780     3.31433030     0.00000000     0.51114578    -0.30856798
O       0.00000000     2.54538622     1.45527613     0.00000000    -0.51114578     0.30856798
