# total energy = -19519.64023371 eV

CRYSTAL
PRIMVEC
        7.60600008     0.00000000     0.00000000
        0.00000000     7.60600008     0.00000000
       -1.89786986    -1.89786986     4.85670466
PRIMCOORD
23 1
Ti      3.80858000     6.60925901     1.20595198    -0.22717736     0.21914575     0.39825271
Ti      3.78678399     2.84700599     1.21533599     0.15345918     0.04461766     0.95557938
Ti     -0.00266599     6.67182898     1.22972898     0.17495515     0.11154787    -0.42465873
Ti     -0.01839198     2.88277901     1.18930999     0.00720680    -0.34775932    -0.75554363
Ti      5.69543822     2.86355421     3.65692982    -0.82514187    -0.11027877    -0.37406994
Ti      5.72784324    -0.94646479     3.62837779    -0.81149779    -0.01313629     0.50430716
Ti      1.92189023     2.85454624     3.64131380     0.96618699    -0.14646192    -0.43955416
Ti      1.89594721    -0.97283776     3.68036184     0.49835403     0.06906320    -0.79178231
O       3.74800699     4.76607401     0.74329798    -0.08759623    -0.61665207     0.69213454
O       3.77406299     0.93309401     0.72355802     0.11600976     0.21113393     0.79178874
O       0.00502703     4.76025798     0.78522199     0.25424132     0.34259422     0.00584592
O      -0.01996501     0.97128801     0.82947798     0.09539953    -1.08733484    -0.44491568
O       5.71157723     4.70680822     3.97056582     0.46786793     0.60107709     0.83625470
O       5.71553621     0.92865025     4.02633882     0.36257222     0.45060554    -0.21576346
O       1.88812120     4.71581021     4.03724882    -0.34252635     0.36637591    -0.18760447
O       1.86945522     0.95367022     4.11364079    -0.27482660     0.06190216    -0.80762545
O       3.82802124     2.91589820     3.25356880    -0.65270718    -0.43875840    -0.80742234
O       3.82457322    -0.97751976     3.24902782    -0.67977936     0.00820619    -0.31711381
O      -0.05361777    -1.03933576     3.23618982     1.41430575     0.29362369    -0.56576735
O       5.69214002     6.64111898     1.58782401     0.27766690     0.07389122     0.18828170
O       5.75911899     2.85282699     1.60690001    -0.54917293     0.03390515     0.59165374
O       1.94273103     6.68099301     1.60060200    -0.94029263    -0.01274676     0.51477952
O       1.82460300     2.86486398     1.62954303     0.60249274    -0.11456094     0.65294346
