# total energy = -19885.36755959 eV

CRYSTAL
PRIMVEC
        7.01702631     0.00000000     0.00000000
        0.00002209     2.83277998     0.00000000
        0.00000000     0.00000000    10.86060720
PRIMCOORD
24 1
Ti      2.54334773     1.67870276     4.02920783    -1.15602883     0.66922601    -1.39438972
Ti      4.47370087     1.15407713     6.83139947     1.15602883    -0.66922601     1.39438972
Ti      6.05174112     1.15407809     1.40105243    -1.15151963    -0.66980527     1.39762983
Ti      0.96530748     1.67870194     9.45955497     1.15151963     0.66980527    -1.39762983
Ti      2.54333678     0.26231282     1.40109597    -1.15525107     0.67025316     1.39538114
Ti      4.47371182     2.57046717     9.45951143     1.15525107    -0.67025316    -1.39538114
Ti      0.96529653     0.26231180     6.83135593     1.15221665     0.67023234     1.39686158
Ti      6.05175207     2.57046818     4.02925137    -1.15221665    -0.67023234    -1.39686158
O       2.22094100     0.99746997     5.54208471     8.55725567    -1.59555394     4.58526466
O       4.79610765     1.83530991     5.31852259    -8.55725567     1.59555394    -4.58526466
O       1.28762889     0.99748138     0.11181604    -8.55772850    -1.59523589     4.58653709
O       5.72941981     1.83529850    10.74879096     8.55772850     1.59523589    -4.58653709
O       4.79609670     0.41891992     0.11178081    -8.55561068     1.59508702     4.58399324
O       2.22095190     2.41385996    10.74882619     8.55561068    -1.59508702    -4.58399324
O       5.72940886     0.41890851     5.54211999     8.56119923     1.59467925     4.58720275
O       1.28763969     2.41387142     5.31848731    -8.56119923    -1.59467925    -4.58720275
O       0.25495825     1.72305736     2.93372094     2.90795526    -1.14105986     2.31814089
O       6.76209035     1.10972252     7.92688636    -2.90795526     1.14105986    -2.31814089
O       3.76348065     1.10969619     2.49661720     2.90541964     1.14205694    -2.31824554
O       3.25356800     1.72308374     8.36398991    -2.90541964    -1.14205694     2.31824554
O       0.25494730     0.30666737     2.49658251     2.90829362    -1.14169441    -2.31833244
O       6.76210130     2.52611251     8.36402459    -2.90829362     1.14169441     2.31833244
O       3.25355705     0.30669370     7.92692095    -2.90530188    -1.14165610    -2.31648150
O       3.76349160     2.52608618     2.93368631     2.90530188     1.14165610     2.31648150
