# total energy = -19941.55546703 eV

CRYSTAL
PRIMVEC
        5.89098024     0.00000000     0.00000000
        0.93523896     6.19963901     0.00000000
        0.00000000     0.00000000    10.57350187
PRIMCOORD
24 1
Ti      2.68941872     3.67390028     3.92269381     0.03949576    -1.53291027     0.79368724
Ti      4.13680041     2.52573856     6.65080830    -0.03949576     1.53291027    -0.79368724
Ti      5.46160744     2.52574065     1.36401496    -0.13068434    -0.05395591    -0.25205074
Ti      1.36461170     3.67389842     9.20948727     0.13068434     0.05395591     0.25205074
Ti      2.22179937     0.57408088     1.36405736     0.03949576    -1.53291027    -0.79368724
Ti      4.60441977     5.62555814     9.20944487    -0.03949576     1.53291027     0.79368724
Ti      0.89699232     0.57407861     6.65076589     0.13068434     0.05395591    -0.25205074
Ti      5.92922682     5.62556041     3.92273622    -0.13068434    -0.05395591     0.25205074
O       2.19384595     2.18299821     5.39557712     1.53615758     1.66745358    -0.41148156
O       4.63237317     4.01664062     5.17792493    -1.53615758    -1.66745358     0.41148156
O       1.41030942     2.18302327     0.10886012    -0.87595897     0.48202006     0.57174336
O       5.41590977     4.01661562    10.46464169     0.87595897    -0.48202006    -0.57174336
O       4.16475381     0.91682105     0.10882583    -1.53615758    -1.66745358    -0.41148156
O       2.66146532     5.28281779    10.46467599     1.53615758     1.66745358     0.41148156
O       4.94829040     0.91679604     5.39561148     0.87595897    -0.48202006     0.57174336
O       1.87792867     5.28284286     5.17789064    -0.87595897     0.48202006    -0.57174336
O       0.78289828     3.77097188     2.85616669     0.36300442     0.73124978     0.97188224
O       6.04332084     2.42866690     7.71733542    -0.36300442    -0.73124978    -0.97188224
O       3.52589958     2.42860924     2.43061800     0.64894745     1.02600990     0.25015943
O       3.30031954     3.77102954     8.14288393    -0.64894745    -1.02600990    -0.25015943
O       0.31527891     0.67115230     2.43058418     0.36300442     0.73124978    -0.97188224
O       6.51094021     5.52848648     8.14291769    -0.36300442    -0.73124978     0.97188224
O       2.83270018     0.67120996     7.71736911    -0.64894745    -1.02600990     0.25015943
O       3.99351894     5.52842882     2.85613294     0.64894745     1.02600990    -0.25015943
