# total energy = -4955.31850601 eV

CRYSTAL
PRIMVEC
        5.26260645     0.00000000     0.00000000
       -0.00000727     2.53384739     0.00000000
       -2.63133271    -1.26699449     5.66952102
PRIMCOORD
6 1
Ti     -0.00022483     1.90046956     1.41737996    -0.01915395    -0.02011452    35.18370708
Ti      2.63149124    -0.63361682     4.25214036     0.01915395     0.02011452   -35.18370708
O       0.00005600     0.63344969     0.92351851     0.01730173     0.01918969   -27.93551595
O       2.63121025     0.63340294     4.74600186    -0.01730173    -0.01918969    27.93551595
O      -0.00002150    -0.63347850     3.75827891    -0.00158303    -0.00019798    -1.57606625
O       2.63128769     1.90033114     1.91124146     0.00158303     0.00019798     1.57606625
