# total energy = -19070.71331228 eV

CRYSTAL
PRIMVEC
        5.17600016     0.00000000     0.00000000
        0.00000000     5.50899976     0.00000000
        0.00000000     0.00000000     9.26300011
PRIMCOORD
22 1
Ti      1.69092499     3.54714602     3.41490198     2.10725508    -2.29087356    -3.47014595
Ti      3.59329202     2.22000498     5.92649002     1.90308319    -0.20353297     3.71257587
Ti      4.22545801     2.22386702     1.65820798     0.16752954    -1.42418316    -0.22794226
Ti      1.08141102     2.65193401     7.82735101    -1.94973973     1.19159337    -0.16978929
Ti      1.77215698     0.58776601     1.04021600     0.80041248     0.85211533     1.77546746
Ti      3.30130498     0.03002901     7.87326899     3.12800912    -2.38647107    -1.34270050
Ti      0.91641397     0.00126801     6.11828799    -0.48102864    -0.76177830     2.33415502
Ti      4.37680202     5.14713597     3.55850401    -0.72915870     0.12544288    -0.04341104
O       3.30785302     2.67306501     4.34104001    -0.80378860     1.85831564    -3.11355026
O       0.75490701     1.99328798     0.21299998    -0.73284438     0.70519498    -0.35572485
O       4.84435001     3.76146100     7.40364202    -0.50037414     0.50637664    -0.67401931
O       3.56364301     1.03622701     0.21040998     0.21761568     0.71980425     0.24237233
O       1.98285801     4.95468601     8.90955098    -2.36947453    -1.27399160     1.43693095
O       3.80310699     0.21158401     5.58539301     0.69838747    -1.20780213    -3.26185360
O       1.15371399     4.83509301     4.46982100    -1.75647523     1.57803341     1.01436228
O       0.02473099     3.71426501     2.45187399    -1.04350292    -1.04225362     0.22919285
O       5.01948599     1.18769902     7.11304798     0.38408927     1.35723264     1.65334284
O       2.33472902     2.43638799     1.88442199     1.92887805    -1.14208265     0.81759157
O       2.23364500     3.93138802     6.91264300     0.45298304    -0.40663760    -1.57466629
O       0.17027098     0.69565398     2.34006101    -0.82175804     1.37017918    -0.00885385
O       2.28504198     1.28817300     7.00907201    -1.62313314     1.01702749    -0.47782170
O       2.53989501     4.84531200     2.31537902     1.02303487     0.85829060     1.50448800
