# total energy = -19959.72689013 eV

CRYSTAL
PRIMVEC
        7.60600008     0.00000000     0.00000000
        0.00000000     7.60600008     0.00000000
       -1.89786986    -1.89786986     4.85670466
PRIMCOORD
24 1
Ti      3.81294402     6.85574300     1.08705998     2.69341848    -0.89426395    -0.27111830
Ti      3.80125698     2.80872801     1.15814198    -1.35270441     1.16621735     0.24190464
Ti     -0.00732799     6.61267401     1.23915902    -2.16982315     0.42625384    -0.29931380
Ti     -0.16697098     2.72147001     1.37514598     0.41982171     0.23195884    -1.43908837
Ti      5.57043825     2.80939922     3.79404980     0.78909396    -0.35264673    -0.52344569
Ti      5.66093020    -0.95329678     3.60658082     1.60285742     0.38780143     0.56706755
Ti      1.97889923     2.82457422     3.69676083     0.04045787    -0.40256240    -0.61163456
Ti      2.07597722    -0.94493578     3.43676382    -1.51572887     0.54815194     2.17863973
O       4.06998600     4.74762800     0.91872902    -1.45375343     1.43484270    -1.65343540
O       4.15968599     1.04253702     0.59546898    -1.43304113    -1.34057420     0.48064246
O       7.26720102     4.71369901     0.81506103     0.92181616     0.70419765     1.19645893
O      -0.07402798     0.91900202     0.69697697     0.11562075    -0.33880647     1.61315494
O       5.46082320     4.73714320     4.05663380     0.75328671    -0.15343655     0.20295525
O       5.85675923     0.91101023     4.24463079    -0.30401918     0.42792917    -0.82489787
O       2.25271724     4.88036523     3.88439380    -1.43951594    -1.84582778     1.19344868
O       1.80050421     0.98276724     4.02861683    -0.21695388    -0.03484155     0.09686069
O       3.82677021     2.55945621     3.31411980    -1.61393476     0.18308395    -0.21838418
O       3.85117121    -0.86273180     3.13640181    -0.48770374     0.80826694    -0.96301553
O      -0.05263477     2.88130223     3.20287579     0.33890238     0.33214371     1.32799867
O      -0.09500377    -1.00328376     3.17028979     1.67665325    -0.54657508    -0.14153311
O       5.70348198    -0.61496498     1.64994699    -0.57483717    -1.01050614    -0.32386990
O       5.51353698     2.88123699     1.74656301     2.77386858    -0.57225090    -0.10214277
O       1.92302198     6.70992303     1.59716902     0.24593331     0.19519025    -1.89779700
O       1.91509898     2.65743602     1.70999400     0.19028536     0.64625448     0.17054545
