# total energy = -4986.20899919 eV

CRYSTAL
PRIMVEC
        4.18912371     0.00000000     0.00000000
        1.42261718     3.94016723     0.00000000
       -2.80590866    -1.97011045     5.43259729
PRIMCOORD
6 1
Ti      1.06684211     2.95527655     1.35814938    -0.00006556     0.00006556     0.00000000
Ti      1.73898939    -0.98522028     4.07444803     0.00006556    -0.00006556     0.00000000
O       0.35569793     0.98503638     0.88492576    -0.00065383    -0.00114826    -1.54587018
O       2.45013337     0.98501975     4.54767176     0.00065383     0.00114826     1.54587018
O      -0.35566396    -0.98501258     3.60122441    -0.00114826    -0.00065383    -1.54587018
O       3.16149519     2.95506866     1.83137311     0.00114826     0.00065383     1.54587018
