# total energy = -19517.43735337 eV

CRYSTAL
PRIMVEC
        5.93400000     0.00000000     0.00000000
        0.00000000     9.29699974     0.00000000
        0.00000000     0.00000000     4.64899994
PRIMCOORD
23 1
Ti      4.41026798     7.03536301     2.23717303    -0.36169367     0.02475228     0.50374357
Ti      4.53519101     2.38301602     2.32930300    -0.85017260    -2.01070498     0.54655580
Ti      1.34787902     6.96740401     2.14811398     0.50107708    -0.40150593     0.94115626
Ti      1.49527202     2.36649802     2.30662997    -0.08392341    -1.60495107     0.74528415
Ti      3.00706899     4.48910502     0.19381498    -0.57734400     0.73166553    -0.04373859
Ti      3.03983199     0.09534398     4.63061702    -0.71760544     0.84817922     0.04670848
Ti      5.90576199     4.55288601     0.00797602     0.71771600     1.49330421    -0.82911731
Ti      0.03084701     9.24871401     4.55289802     0.06780233     1.13109555     0.17320783
O       4.52558999     5.50565298     0.97037698    -1.10412621     0.45550272     0.12739667
O       4.47256198     0.94882799     0.94337899     0.02671891     0.00338640    -0.63850594
O       1.46664999     5.45598800     1.05912599     0.62952944     0.76547760    -0.21378422
O       1.47458702     0.93828799     0.85997600    -0.55401252     0.60476174     0.56759540
O       4.30823398     8.40262701     3.67281101     1.29282417    -0.71136640    -0.02490346
O       4.42216701     3.64570300     3.89307400    -0.17104424     0.05433026    -0.39544558
O       1.42887002     8.57891098     3.67508800     0.37473123    -1.79954405    -0.82205372
O       1.60105599     3.72206000     3.78336503    -0.28831256     0.08725659     0.28026603
O       3.08969599     1.34439200     3.13722299    -1.17269241     0.75834433     0.42174489
O       5.93044298     6.08083399     3.40886898     0.11693767     0.38055529    -0.97324595
O       0.00013801     1.45779500     3.21569997     0.16123342    -0.13662847     0.29472669
O       2.92062402     7.95805298     1.37554699    -0.08847015    -1.78761207     1.03757884
O       2.93652701     3.32651800     1.57013399     0.69583848    -0.27784688    -0.14762534
O       5.84573599     7.68916902     1.32858701     0.27941191     1.73582515    -0.94808127
O       5.89515400     3.40506298     1.60945900     1.10557631    -0.34427727    -0.64946296
