# total energy = -19952.01163170 eV

CRYSTAL
PRIMVEC
        6.24972109     0.00000000     0.00000000
        0.00002640     4.91639501     0.00000000
        0.00000000     0.00000000     9.95051875
PRIMCOORD
24 1
Ti      2.26523897     2.91345117     3.69157149     0.23088746     0.24344011    -0.41239713
Ti      3.98450859     2.00294401     6.25894732    -0.23088746    -0.24344011     0.41239713
Ti      5.38999158     2.00294572     1.28364816     0.23177887    -0.24351364     0.41306047
Ti      0.85975598     2.91344968     8.66687076    -0.23177887     0.24351364    -0.41306047
Ti      2.26522588     0.45525377     1.28368806     0.23092603     0.24245872     0.41233697
Ti      3.98452168     4.46114157     8.66683086    -0.23092603    -0.24245872    -0.41233697
Ti      0.85974289     0.45525190     6.25890743    -0.23177424     0.24253199     0.41276583
Ti      5.39000467     4.46114344     3.69161138     0.23177424    -0.24253199    -0.41276583
O       1.97808552     1.73114629     5.07767356     0.90767200     0.26260280     0.07364825
O       4.27166209     3.18524888     4.87284525    -0.90767200    -0.26260280    -0.07364825
O       1.14683022     1.73116612     0.10244619    -0.90705828     0.26214181     0.07360608
O       5.10291744     3.18522911     9.84807234     0.90705828    -0.26214181    -0.07360608
O       4.27164900     0.72705132     0.10241390    -0.90810652    -0.26259766     0.07371921
O       1.97809861     4.18934385     9.84810463     0.90810652     0.26259766    -0.07371921
O       5.10290435     0.72703155     5.07770584     0.90763215    -0.26251770     0.07328932
O       1.14684320     4.18936368     4.87281297    -0.90763215     0.26251770    -0.07328932
O       0.22708289     2.99043013     2.68788336    -0.51503638     0.00088883     0.38518842
O       6.02266471     1.92596504     7.26263545     0.51503638    -0.00088883    -0.38518842
O       3.35195018     1.92591919     2.28740769    -0.51492479    -0.00070217    -0.38512389
O       2.89779743     2.99047604     7.66311095     0.51492479     0.00070217     0.38512389
O       0.22706980     0.53223263     2.28737590    -0.51510888     0.00074691    -0.38498427
O       6.02267781     4.38416260     7.66314274     0.51510888    -0.00074691     0.38498427
O       2.89778434     0.53227848     7.26266717     0.51489882     0.00038438    -0.38520565
O       3.35196327     4.38411669     2.68785158    -0.51489882    -0.00038438     0.38520565
