# total energy = -4986.45786781 eV

CRYSTAL
PRIMVEC
        4.70164186     0.00000000     0.00000000
       -0.00000806     3.47512679     0.00000000
       -2.35084971    -1.73760885     5.33778827
PRIMCOORD
6 1
Ti     -0.00020304     2.60647306     1.33444676    -0.00144985    -0.00365020     5.17212431
Ti      2.35098691    -0.86895512     4.00334072     0.00144985     0.00365020    -5.17212431
O       0.00004904     0.86877347     0.86948194     0.00067877     0.00170156    -1.34798181
O       2.35073466     0.86874441     4.46830553    -0.00067877    -0.00170156     1.34798181
O      -0.00002104    -0.86877013     3.53837591    -0.00260093    -0.00016481    -1.99402185
O       2.35080468     2.60628790     1.79941162     0.00260093     0.00016481     1.99402185
