# total energy = -39033.63105397 eV

CRYSTAL
PRIMVEC
        7.60600008     0.00000000     0.00000000
        0.00000000     7.60600008     0.00000000
       -3.79573973    -3.79573973     9.71340985
PRIMCOORD
46 1
Ti      1.76501843     4.86969046     5.89870160    -1.43095699     0.80598972     0.75265885
Ti      3.85470198     6.68888802     1.22875201    -1.69901054     0.59893947     0.53681106
Ti      1.92491643     1.09056647     6.14359764    -0.92690900    -1.80791788    -0.36991555
Ti      4.06352601     2.79584699     1.23567698    -0.97412861    -1.28187024    -0.85617613
Ti     -2.09420553     4.76000546     6.03839360     0.85647155    -0.32742702     0.28765281
Ti     -0.08567702     6.63334600     1.16864001     0.74048210     0.61586325     1.59688988
Ti     -1.96880454     0.95054046     6.17059462     0.10268141     0.12146461    -0.84106523
Ti      0.23253699     2.79097602     1.33858301    -0.28996424     0.16361632    -3.31302192
Ti      3.58569346     0.91448343     8.56999561     0.76817855    -0.08523184    -1.03336325
Ti      5.93915101     2.89502602     3.62195199    -1.47407955    -2.33568971     0.85337414
Ti      3.75436447    -2.90600756     8.44445265    -1.86574536    -0.39956012    -0.32868815
Ti      5.70263498    -1.01305000     3.68667598     0.37093550     1.70574503     0.42254528
Ti     -0.14594656     0.93434345     8.43912262     0.06150235    -0.73106183     1.13301436
Ti      2.20650302     2.97154500     3.61972702     0.12408766    -0.48527199     0.03394012
Ti     -0.12434856    -3.02307956     8.41954660     2.03827570     0.46669936     0.09489200
Ti      1.88436399    -0.77235102     3.52919601     0.13023311    -0.58941353     2.56776451
O       1.75202846    -0.84506654     5.55817160    -0.42883857    -0.30280922     0.31156228
O       3.93523202     0.88086797     0.93315503    -0.69005066     1.18737753    -1.00659729
O      -1.99683257     2.82521045     5.77940664    -0.11024792     0.33444434    -0.80576680
O      -0.00289698     4.79775400     0.77026300    -0.11782239     0.50655328     0.81949316
O      -1.61926053    -0.96910955     5.63008261    -1.59360196    -0.50973553     0.21901899
O      -0.10500099     0.79796500     0.61554998     0.39701550     0.35003371     0.82348043
O       3.98997143     2.83478845     8.34996763    -1.17029820    -0.46509422     2.26568523
O       5.78949900     4.68408403     3.99388401     0.11451569     0.66030299     0.55910690
O       3.82652843    -0.93088755     9.08293665    -0.22377450    -0.24504473    -1.25521149
O       5.48604199     0.97041101     4.11529902     0.52485979    -0.68683755     0.28765770
O      -0.09805654     2.77411548     9.06528763    -0.68567207     0.07444658    -0.89062892
O       1.69338699     4.81831899     3.98834898     0.30879295    -1.23304240     0.25938918
O       0.02318347    -0.85543556     9.04413965    -0.12812506    -0.76084396     0.03334182
O       2.29753897     1.10080801     4.33412900    -0.24785855     1.20360274    -2.71081097
O       1.70361244     1.08356646     8.04410064     3.55482963     0.29871885     1.84032613
O       4.07577001     2.94511101     3.21483302    -1.76422120     0.51348806     0.16610695
O       1.84528446    -3.15092455     8.11393161    -1.49477026     0.88016196    -0.58135055
O       3.57342300     6.15309198     3.01715701     1.71146780     0.52072623     1.49845311
O      -1.92713453     0.96123344     8.20441060    -1.66401138    -0.48098056    -0.72615154
O       0.11182500     2.54686898     3.12748300     0.52743013     0.03513722     1.91512958
O      -2.00303453    -2.84812954     8.01738264     0.97981692     0.63471022    -0.47657240
O      -0.08003203    -0.84450900     3.42477600    -0.00866539    -0.00088523    -1.92964835
O       3.53231646     4.94796943     6.36603364     2.85524660    -0.33385504     0.00533273
O       5.59962200     6.71004998     1.70956299     2.47456224    -0.71531228    -0.06098325
O       3.72216647     0.74701444     6.58122664     0.62552469     0.05547928     0.22967545
O       5.82409100     2.67946900     1.50421999     1.50334257     1.09430665     1.10353871
O      -0.13815955     4.51048743     6.37830262     0.76985568     0.35439405     1.40799678
O       1.79812599     6.88203301     1.70091401    -1.29356028     0.01864796    -1.82916086
O      -0.04240758     0.93902646     6.62204865    -0.87608753     0.49364531    -2.59888052
O       2.09477402     2.96161001     1.66821599    -0.38170792     0.08338965    -0.41084521
