# total energy = -19960.10529629 eV

CRYSTAL
PRIMVEC
        5.93400000     0.00000000     0.00000000
        0.00000000     9.29699974     0.00000000
        0.00000000     0.00000000     4.64899994
PRIMCOORD
24 1
Ti      4.47406601     7.03676602     2.30420200     1.09943112    -0.25060603     0.57113376
Ti      4.41910201     2.27214402     2.27971702    -0.06815534     0.75413775     0.48849513
Ti      1.53252399     6.91034198     2.31922402    -1.25969241    -0.19333160     0.68639404
Ti      1.45458602     2.26433300     2.26657798     0.23856092     0.87458061     1.05011785
Ti      2.97397498     4.62058799     0.04119502     0.22199633     1.67818922    -0.21409918
Ti      2.91195498     0.06494899     0.13265902     1.42979897    -2.59643386    -1.75141247
Ti      5.89738898     4.59203798     4.61930500    -0.02676879     1.90518789    -0.34630716
Ti      0.01992400     0.05432999     4.64425799    -0.48091628    -3.36958827    -0.80054181
O       4.49805801     5.50389601     0.93199502    -0.22469213     0.23411600     0.10449790
O       4.45512199     0.84434400     0.96279102    -0.49250811     0.23534344    -0.04262428
O       1.48257701     5.54541800     0.95697102     0.39094075    -0.40433492     0.04890291
O       1.51257099     0.87903400     0.93148002    -0.79090479     1.42659383     0.75493582
O       4.44079098     8.35431201     3.62279698    -0.09985783     1.93715777     1.74709019
O       4.45408301     3.81893701     3.68148697    -0.00715693    -0.96179580    -0.63938834
O       1.35466201     8.44274002     3.67103498     1.13629509     0.83618914     1.38093796
O       1.54414398     3.83283500     3.79529501    -0.51076834    -1.47928809    -1.75786543
O       3.07383999     6.11866201     3.21108999    -0.67198480    -0.36934888     0.30068754
O       2.97548102     1.42789702     3.21048700    -0.70293267     0.40907372    -0.09297241
O       5.91308200     6.23083097     3.38989999     0.35368674    -0.99726418    -1.04008952
O       0.04797902     1.37881599     3.30809601     0.11095805     2.12507900    -1.68860245
O       2.86945702     7.99604399     1.45762397     0.89027540    -0.11098068    -0.82443765
O       3.03321198     3.23328998     1.37407302    -0.72817294    -1.06873702     0.75385621
O       0.14024801     7.87282702     1.41268201    -1.08869393     0.38698331    -0.62786568
O       5.82061298     3.12414702     1.21442099     1.28126191    -1.00092183     1.93915783
