# total energy = -19074.02820387 eV

CRYSTAL
PRIMVEC
        5.93400000     0.00000000     0.00000000
        0.00000000     9.29699974     0.00000000
        0.00000000     0.00000000     4.64899994
PRIMCOORD
22 1
Ti      4.41384299     7.05651100     2.19833401     0.40478846    -0.85773345     0.20524996
Ti      4.45101002     2.27313999     2.21747599    -0.23322023     0.60765757     0.53749163
Ti      1.50062598     6.98663801     2.63291998    -0.63877462     0.39206690     0.51824871
Ti      1.63021000     2.49283300     2.09733302    -1.05244830    -0.66767074     0.52556865
Ti      3.04017098     4.62306999     4.53883201     0.78803107    -0.01637459     0.17046857
Ti      2.96175802     9.21786197     4.61914599    -0.76219122     1.00601159     0.22104605
Ti      5.90139898     4.61148101     4.44750502    -0.52133481    -0.60571022     0.00884666
Ti      5.89115501     9.18601699     0.28781400     0.53470301     0.23258491     0.82746718
O       4.39790301     5.69085502     0.79729898    -0.10530805    -0.10265416     1.13553199
O       4.37799002     0.81871801     1.11791398     0.41413571    -0.48843265    -1.36196347
O       1.59226000     0.93396001     0.99661401    -1.11033851     0.15031369    -0.99126142
O       4.47703501     8.26341302     3.95568599    -0.15843324     0.63454901    -0.22196779
O       4.38818700     3.91913699     3.47732399     0.42818988    -1.62175555     0.45250815
O       1.30033202     8.11663502     4.10066500     1.42559573     0.66772731    -0.46594269
O       1.50255398     3.81437598     3.64386501    -0.46878016    -0.03851385    -0.23122916
O       2.97891400     5.95325602     3.22549002    -0.37459161     1.58010700    -1.12879338
O       2.92089803     1.42741600     3.20726298     0.27045290    -0.13612556     0.78368102
O       5.73605702     6.11138900     3.30816301     1.43597399    -0.14350206    -1.08990492
O       2.85003299     8.02605199     1.61932202     0.04947781    -1.00326077     0.12886451
O       3.09010700     3.05033102     1.20222298     0.23703472     1.99143738    -0.70429844
O       0.12360602     8.19951402     1.78898699    -0.95379607    -1.32700880    -0.09466034
O       5.88083901     3.19226398     1.20484801     0.39083328    -0.25371321     0.77504905
