# total energy = -19958.39234326 eV

CRYSTAL
PRIMVEC
        7.60600008     0.00000000     0.00000000
        0.00000000     7.60600008     0.00000000
       -1.89786986    -1.89786986     4.85670466
PRIMCOORD
24 1
Ti      3.82787502     6.58099502     1.21457302     1.75689329    -0.38009275    -0.42606666
Ti      3.54292302     2.76630101     1.14568700     6.14834478    -0.33599523     0.71225420
Ti      0.05334800     6.82121001     1.30569301    -2.54930938    -1.66103790    -2.08701895
Ti      0.03833498     2.90562999     1.23875700    -4.89741881     2.76925011    -0.24680620
Ti      5.72593021     2.98086122     3.67554384    -0.51252698    -0.10017099    -0.96144819
Ti      5.70421224    -0.86284377     3.65937684    -1.16300012     0.24627089    -0.61129672
Ti      1.94119922     2.61777022     3.61281083     1.37750477     1.76812105     1.75872263
Ti      1.85012823    -1.12176380     3.58903680     1.38427089    -0.73669512     1.11943893
O       3.88866098     4.66783701     0.72930701    -1.00089792    -1.39137099    -0.55350292
O       3.88894801     0.79670201     0.84343001    -0.89810209     1.75800658    -1.32794416
O      -0.08855501     4.80228402     0.86014502     1.06171482     0.11095548    -0.66043360
O      -0.07330301     1.09925101     0.83307702     0.76080333    -1.21716917     0.04946419
O       5.38921425     4.84081421     4.13870279     1.29352531     0.54722891     0.66543414
O       5.60490520     1.08094820     3.85400982     1.61347685    -1.69402928     1.83535182
O       2.03558020     4.58212221     4.10940780     0.14964109     2.07580816    -1.54797411
O       2.16420922     0.77868623     4.00233280    -1.83739302     0.17484485     0.39529492
O       3.89988224     2.59485425     3.26734582    -4.32853580     1.10485306    -1.51320404
O       3.97798425    -0.84114978     3.05971683    -2.55766264    -0.61058709     1.21938341
O       0.04309720     3.19459422     3.25186680     0.55174814    -1.73916321    -0.60330624
O      -0.01884077    -0.89551280     3.32079082     2.03456559    -0.14832443    -0.06476766
O       5.80731597     6.50780399     1.61612097     0.34006606     0.70154324     0.55442569
O       5.59623902     2.93072199     1.67136502     1.40157339    -0.01162345     0.21365798
O       1.94930399     6.66848601     1.61536600    -0.96113811    -0.42538480     0.75302883
O       1.83469801     3.07829503     1.45183102     0.83185631    -0.80523767     1.32731270
