# total energy = -19071.78746404 eV

CRYSTAL
PRIMVEC
        5.17600016     0.00000000     0.00000000
        0.00000000     5.50899976     0.00000000
        0.00000000     0.00000000     9.26300011
PRIMCOORD
22 1
Ti      1.60430000     3.26147100     3.31751802     1.61497657     0.75238143    -0.27504643
Ti      3.96870798     2.34664302     5.70097601    -2.51283518    -1.54317695    -0.83583535
Ti      4.23339498     2.04184899     1.44974500     0.55669392    -0.04471304    -1.43465938
Ti      1.04545602     3.33959302     8.19422902    -0.57897948    -2.92657546     1.95740625
Ti      1.59944898     0.45389602     1.38771299     1.16567844     0.71344745    -0.51719739
Ti      3.19987101     5.07084899     8.10986499     1.89181866     3.47766720    -0.51868529
Ti      1.38369902     0.17649300     5.99159798     2.16567185     0.24214684    -1.80266512
Ti      4.26881303     5.06274199     3.58486498    -1.73895033    -1.45163073     1.56753070
O       3.01146401     3.69174698     4.57863302     2.52217549    -1.50416404     1.40882802
O       0.85001398     1.91359500     0.36476601    -1.40863827     1.27243788    -1.73883334
O       4.52708301     3.80361299     7.90006499    -0.80879479    -0.58800328    -0.49272176
O       3.22338902     0.94147200     0.16207699     1.93411024     0.70469233     0.49762023
O       1.76831902     4.76332800     9.15277000    -2.52120798    -1.45825518     1.70369201
O       3.32982202     0.95887299     4.47339602     1.10014177    -0.04768807     0.74867415
O       0.90780802     4.68510402     4.43583698    -2.42518419     1.24574417     0.89341060
O       4.93336699     3.33108601     2.71102998     0.51611958    -0.50146300    -0.59605470
O       0.55063999     1.78246901     5.79146500    -1.07960919     1.76764719    -0.05711374
O       2.54094098     1.81240398     2.25598702    -0.61169832     0.99660315     1.62921020
O       2.02537999     4.17272603     6.91148997     0.20970876    -1.21257975    -1.68154066
O       5.00636800     0.54602498     2.20088999     0.46592829    -0.59435417     0.15731763
O       2.89609401     1.13237502     6.90059898     0.03210023     0.01386057    -0.05903486
O       2.58857699     4.52197402     2.36510099    -0.48922635     0.68597572    -0.55430151
