# total energy = -4990.42071744 eV

CRYSTAL
PRIMVEC
        3.86501744     0.00000000     0.00000000
        0.38552893     3.84574145     0.00000000
       -2.12530747    -1.92290174     4.93881509
PRIMCOORD
6 1
Ti      0.28899860     2.88445238     1.23470353    -0.00015452     0.00015452     0.00000000
Ti      1.83623997    -0.96161298     3.70411097     0.00015452    -0.00015452     0.00000000
O       0.09642298     0.96142928     0.80449254    -0.00034119    -0.00040778    -0.31815716
O       2.02881548     0.96141002     4.13432207     0.00034119     0.00040778     0.31815716
O      -0.09640159    -0.96140993     3.27389998    -0.00040778    -0.00034119    -0.31815716
O       2.22163999     2.88424917     1.66491463     0.00040778     0.00034119     0.31815716
