# total energy = -19517.47647017 eV

CRYSTAL
PRIMVEC
        5.17600016     0.00000000     0.00000000
        0.00000000     5.50899976     0.00000000
        0.00000000     0.00000000     9.26300011
PRIMCOORD
23 1
Ti      1.81716002     3.27560300     3.47581800     0.88269475     0.28627265     2.27138074
Ti      3.45019402     2.17655201     5.91498502     0.44630871     0.97641330    -2.84632898
Ti      4.31506201     2.10194199     1.35228801    -0.60912388     2.05420960     0.03015237
Ti      0.80496898     3.31022003     7.89830500    -0.65042146     1.26271808    -0.24085949
Ti      1.88521501     0.35412102     1.28238502     0.00132309    -0.15188258     0.01526105
Ti      3.32898301     5.12122301     8.00852500     0.53202932    -1.66655241     0.25295525
Ti      0.82960800     0.55595002     5.86147399    -0.56862950    -1.12198998    -3.04358949
Ti      4.43980501     4.91358502     3.27975900     0.70699295    -1.08577315     3.43471793
O       1.86191799     1.90130200     4.70431199    -0.92713834    -1.14295425     1.43698752
O       3.55380502     3.61326798     4.49623700     1.38623547     0.04110116     0.12746557
O       4.61890997     3.32977900     9.15443902    -0.78186068    -0.64560707     1.44444321
O       3.39712300     0.80517499     0.23837900     0.90901103     0.28197196    -1.65759262
O       1.76394198     4.63981999     9.01064998     0.18419878     0.20827743     1.14375772
O       4.39819999     0.87877598     4.78424802     0.32465203    -0.46529940    -0.48439679
O       1.14571002     4.64339897     4.59814897    -1.29737245     0.57141503    -0.13552264
O       0.29286500     3.28160302     2.45264501    -1.91742172     0.84265521    -0.42915430
O       0.03791402     1.80654001     7.07086398    -1.01872647     0.40209472    -0.34360184
O       2.59230901     2.10862598     2.17717200     1.16434507    -0.78139351    -1.63091073
O       2.51834400     3.29712300     7.06645599     0.55680062     0.82073731     0.87850462
O       0.15730000     0.64705799     2.07633002     0.22428615    -0.17236091    -0.69160130
O       5.11802498     4.69885998     7.05586498    -0.80512943     0.23833415    -0.06647744
O       2.51345499     0.69028701     6.76304501     0.57357630    -0.62966108     0.83443179
O       2.70787698     4.83165299     2.49484298     0.68336965    -0.12272600    -0.30002240
