# total energy = -4983.90023223 eV

CRYSTAL
PRIMVEC
        2.90454450     0.00000000     0.00000000
        1.75037921     4.20090981     0.00000000
       -0.00001116    -0.00006046     4.64855052
PRIMCOORD
6 1
Ti      2.32745619     2.10042453     2.32427521     0.00000000     0.00000000     0.00000000
Ti      0.00000000     0.00000000     0.00000000     0.00000000     0.00000000     0.00000000
O       1.79339313     0.81868356     0.90593401    -5.48138751     2.49991050     3.05727214
O       2.86151926     3.38216550     3.74261636     5.48138751    -2.49991050    -3.05727214
O       0.53405829     1.28171657     3.23021024     5.48165645    -2.50082067     3.05809463
O       1.21630975     2.91913268     1.41834018    -5.48165645     2.50082067    -3.05809463
