# total energy = -19518.40649908 eV

CRYSTAL
PRIMVEC
        7.60600008     0.00000000     0.00000000
        0.00000000     7.60600008     0.00000000
       -1.89786986    -1.89786986     4.85670466
PRIMCOORD
23 1
Ti      3.76623201     6.52128203     1.28711502     1.21835137     0.94932929    -0.50510574
Ti      3.71276701     2.78840601     1.17390998     0.27261880    -0.90567451    -0.02036649
Ti      0.09149702     6.76624500     1.27099702    -1.43819671    -0.61687730    -0.96483022
Ti     -0.05461898     2.94177597     1.00667701    -0.17149136     0.49863299     0.62534009
Ti      5.62043925     3.00371723     3.57694081     1.04086239    -0.28281811     1.68334814
Ti      5.74314720    -1.00433079     3.59582180    -0.18421987     1.23208260    -1.12103250
Ti      2.07019723     2.80863821     3.66291783    -1.03199080    -0.04031774     0.83357201
Ti      1.92494622    -1.05593976     3.64197680     0.24737081    -0.07684002     1.11773326
O       3.58224301     4.66590202     0.90152499     0.21288356     0.02035620    -0.76931266
O       3.77688499     0.88649202     0.99781302    -0.04674550     0.74690600    -1.19570765
O      -0.03268199     4.89967798     0.66068399     0.59874510    -0.49403791     1.42345837
O      -0.07407698     1.04960598     0.65192399     0.05822471    -0.51258432     1.66405355
O       5.83080922     4.87644324     4.02161983     0.34615058    -1.86589037     0.02258046
O       5.77766522     1.04744122     4.03177083     0.44376229     0.16491576    -1.25470421
O       1.86224121     4.66359021     4.09575682    -0.17801476     0.13427925     0.22285482
O       1.83778221     0.86763823     3.98946480    -0.06306661     0.34839798     1.35455715
O       3.84567824     2.93225422     3.46887181    -1.36438802    -0.27660658    -0.81191971
O       3.82122723    -1.12210480     3.21221883    -0.12986930     0.16528883     0.72494492
O       0.09921724    -1.18481379     3.13482079    -1.12883169     0.83499589     0.74843941
O       5.69969799     6.62677700     1.63259902     0.45469771     0.21778743    -0.21180807
O       5.61094301     2.94443901     1.74243098     1.54515464     0.00640668    -2.24050538
O       1.92342399     6.77904299     1.72203702    -0.09687329    -0.14170280    -0.79479847
O       1.77126601     2.86141898     1.82044901    -0.60513455    -0.10602899    -0.53079133
