# total energy = -19518.74256799 eV

CRYSTAL
PRIMVEC
        7.60600008     0.00000000     0.00000000
        0.00000000     7.60600008     0.00000000
       -1.89786986    -1.89786986     4.85670466
PRIMCOORD
23 1
Ti      3.84452199     6.62476200     1.24486397    -1.14846644    -0.33918803    -0.13532929
Ti      3.86500501     2.83265899     1.20456702    -0.13464667     0.57643203     0.21885367
Ti     -0.09166001     6.71866800     1.27100602     1.51780221    -1.50124558    -0.36030862
Ti      0.03353798     2.83959402     1.12922001    -0.67530024     1.75265945    -0.39602974
Ti      5.64488020     2.89752125     3.59462782    -0.65728837    -0.75289513     1.93200477
Ti      5.72005623    -1.00187679     3.69166480    -0.90037161     0.93541910    -0.32516497
Ti      1.90336124     2.79835222     3.50817079     0.35136657     0.32039248     2.29417100
Ti      1.87089124    -0.98596480     3.66828379     0.78482670     0.10839466    -0.68055918
O       3.85879300     4.75748499     0.64347700    -0.32489783    -0.04807219     1.84272343
O       4.07136599     0.97846398     0.78619398    -0.49737598    -0.64760945     0.19082221
O       0.18659901     4.70678001     0.77012700    -0.26514408     1.72481131     0.36551742
O      -0.07107999     0.95166401     0.74937701     0.05991881    -0.88131458     0.85850041
O       5.46184324     4.76644322     4.01113784     0.80697445    -0.02738457     0.87154465
O       5.67051021     1.03561522     4.06429782     0.30258244    -1.05021324    -0.90343559
O       1.71940023     4.74488321     4.01898781     0.07698194     0.31060352     0.08500224
O       1.89317220     0.96402220     4.05453381    -0.67965312    -0.22408072     0.19029590
O       3.73915020     2.80524322     3.32734082     0.86610033     0.27478598    -1.59961063
O       3.81675421    -0.77257180     3.24739483    -0.04627242    -0.56577995    -0.63136675
O      -0.01453777    -0.79420377     3.32895782    -0.18962870    -0.32345081    -0.67963049
O       5.73381299     6.47944300     1.72763402    -0.09012697     0.11667979    -0.80198394
O       5.76896602     2.92859401     1.73378200     0.38177862     0.07636333    -1.12012362
O       1.91353499     6.63230500     1.67998103    -0.19351158     0.27698068    -0.11862766
O       1.83539202     2.74750199     1.65339998     0.65435165    -0.11228809    -1.09726496
