# total energy = -39039.98639921 eV

CRYSTAL
PRIMVEC
        7.60629642    -0.00000847    -0.00005503
       -0.00000847     7.60629642    -0.00005503
       -3.80314186    -3.80314186     9.70738094
PRIMCOORD
46 1
Ti      1.90141717     4.75409272     6.07543241    -0.00021340     0.00035815     0.27832588
Ti      3.80463082     6.65565637     1.22066322    -0.02748819     0.00014707     0.14396615
Ti      1.90142146     0.95094451     6.07545835    -0.00015170     0.00035610     0.27813639
Ti      3.80463505     2.85251184     1.22069069    -0.02748665    -0.00018358     0.14396640
Ti     -1.90171760     4.75408139     6.04839202     0.00037795    -0.00042295    -0.57897922
Ti     -0.00180621     6.65566226     1.22069188     0.02740848     0.00007662     0.14364887
Ti     -1.90171279     0.95093318     6.04843010     0.00017201    -0.00042398    -0.57887098
Ti     -0.00180197     2.85251593     1.22071939     0.02740720    -0.00002751     0.14365016
Ti      3.77877086     0.95063840     8.49336074    -0.65659160     0.00013164     0.08322458
Ti      5.70487172     2.85220162     3.64288201    -0.00000283    -0.00020029     0.10298429
Ti      3.77878464    -2.85250986     8.49338200    -0.65675281     0.00013370     0.08288828
Ti      5.70487597    -0.95095150     3.64290941    -0.00000206     0.00017766     0.10298609
Ti      0.02468582     0.95063855     8.49338330     0.65687365     0.00015118     0.08168603
Ti      1.90172314     2.85221027     3.63988762    -0.00014501    -0.00000437    -0.08255250
Ti      0.02467910    -2.85250967     8.49339968     0.65735650     0.00015067     0.08218894
Ti      1.90172744    -0.95094027     3.63991508    -0.00014630     0.00008433    -0.08255224
O       1.90162074     2.85235981     5.64557739    -0.00022549     0.00008639     0.16436297
O       3.79788150     4.75393384     0.78856109    -0.17319960     0.00005374    -0.04292021
O       1.90162491    -0.95078661     5.64560469    -0.00022497    -0.00019232     0.16436529
O       3.79789180     0.95078566     0.78857666    -0.17332841     0.00005014    -0.04271375
O      -1.90153388     2.85235837     5.65073957     0.00005219     0.00065023     0.09414792
O       0.00534545     4.75393824     0.78857554     0.17319523     0.00005296    -0.04210492
O      -1.90152966    -0.95077901     5.65076710     0.00005271    -0.00040366     0.09414638
O       0.00534947     0.95079007     0.78859821     0.17344128     0.00005065    -0.04274358
O       3.81721954     2.85235619     8.90858111     0.57666009     0.00047385    -0.29697898
O       5.70466735     4.75393023     4.05793843    -0.00006608    -0.00003162    -0.27272653
O       3.81722368    -0.95079675     8.90860860     0.57666009    -0.00076593    -0.29697744
O       5.70467146     0.95078206     4.05798503    -0.00007045    -0.00003548    -0.27368683
O      -0.01416731     2.85236661     8.90861132    -0.57620963    -0.00035096    -0.29703683
O       1.90152285     4.75393315     4.06281142    -0.00023963    -0.00003857     0.07513409
O      -0.01416303    -0.95079896     8.90863890    -0.57620834     0.00004397    -0.29703760
O       1.90152742     0.95078482     4.06284242    -0.00027537    -0.00003214     0.07502430
O       1.90159815     0.95083487     8.06822187    -0.00008587     0.00013473    -0.15243485
O       3.80214084     2.85240164     3.21631657     0.01116913     0.00011801     0.00033527
O       1.90159606    -2.85231327     8.06825449     0.00100582     0.00013421    -0.15239551
O       3.80214488    -0.95074118     3.21634403     0.01117736    -0.00003522     0.00033527
O       0.00100239     2.85240704     3.21634366    -0.01110974     0.00010516     0.00042706
O       0.00100690    -0.95073822     3.21637102    -0.01111797     0.00000154     0.00042783
O       3.82583736     4.75388512     6.50089332     0.60309027    -0.00013884     0.35165557
O       5.70471555     6.65546097     1.63274763    -0.00004859     0.00001517    -0.10681678
O       3.82584331     0.95073684     6.50091592     0.60228705    -0.00013884     0.35094363
O       5.70471979     2.85230565     1.63277507    -0.00004859    -0.00000154    -0.10681652
O      -0.02271237     4.75388946     6.50090343    -0.60379038    -0.00012187     0.35105624
O       1.90156335     6.65546431     1.63428694    -0.00006633     0.00004114     0.00239627
O      -0.02271437     0.95074122     6.50091571    -0.60302265    -0.00012136     0.35153395
O       1.90156764     2.85230915     1.63431437    -0.00006891    -0.00010773     0.00240141
