# total energy = -19517.74564380 eV

CRYSTAL
PRIMVEC
        5.93400000     0.00000000     0.00000000
        0.00000000     9.29699974     0.00000000
        0.00000000     0.00000000     4.64899994
PRIMCOORD
23 1
Ti      4.47909600     7.02374202     2.27094602     1.14448637     0.28389129    -0.04239185
Ti      4.47691500     2.29045498     2.29126002    -0.09031260    -0.55026025     0.41045440
Ti      1.45886400     7.18598803     2.36664000    -0.66656568    -0.90516903    -0.71373979
Ti      1.42132802     2.30136000     2.35913700     0.32009629    -0.47143251    -0.83839849
Ti      3.05802801     4.43278500     0.09136499    -0.34677304     0.45555337     0.47959165
Ti      2.91888900     0.04411502     4.57023498     0.77645390    -0.18854189     0.49199029
Ti      0.07599398     4.62478998     0.01235798     0.19865893     0.62687555    -0.14656528
Ti      5.92752901     0.09159799     0.03601998    -1.01979065    -0.04416103     0.43543551
O       4.43719802     5.50146602     0.84777498    -0.46979163     0.75517133     0.19584203
O       4.31902798     0.93308300     0.92587598     0.83170976    -0.41589306    -0.20593361
O       1.58184802     5.53517498     0.81996798    -0.15815633    -0.15473856    -0.14053886
O       1.52938501     0.97149799     0.93767298    -0.46524489    -0.88555048    -0.89217981
O       4.48334201     8.47203199     3.78861198    -0.27213029    -1.07943384    -0.60602955
O       4.50389298     3.68523699     3.75157502    -0.73541600     0.11413928    -0.86351252
O       1.39797898     8.17012198     3.89378701     0.70115269     1.29001832     0.37856551
O       1.32388400     3.68636599     3.57987499     1.19382252     1.32996042     1.11775923
O       2.81277299     1.40036498     3.24706902     0.86724884    -0.21929436     0.22893137
O       5.91284900     6.10859801     3.09749199     0.01580406    -0.95843100     0.83792309
O       0.02626100     1.33533201     3.21236801    -0.25851295     0.03145412     0.11166819
O       3.03236302     7.99224899     1.52740901    -0.79550784    -0.85490369     0.15207772
O       3.05822302     3.15464001     1.38754302    -1.10565036     0.61758589    -0.07191687
O       0.00895400     7.95722503     1.48436198    -0.29871602     0.45675587    -0.60924755
O       5.82283801     3.09723301     1.28197099     0.63313516     0.76640500     0.29021543
