# total energy = -19959.17701802 eV

CRYSTAL
PRIMVEC
        7.60600008     0.00000000     0.00000000
        0.00000000     7.60600008     0.00000000
       -1.89786986    -1.89786986     4.85670466
PRIMCOORD
24 1
Ti      3.74717899     6.76525502     1.22405498     0.10356716    -0.82403090    -0.46783451
Ti      3.69747300     2.92575302     1.18759901     0.91167418     0.41895653     1.53374074
Ti      0.03808399     6.64703200     1.17897802     0.25038183     0.06358726     0.68467011
Ti     -0.02823600     2.77031799     1.28578298    -0.85492631     0.05011519    -0.56275453
Ti      5.78326021     2.72543223     3.70358081    -1.90804799    -0.46319083    -0.63358613
Ti      5.78785321    -1.05769276     3.55257580    -0.41694078     0.65440359     0.15432667
Ti      1.76948723     2.77962723     3.56800984     3.35955659     1.71837224     2.20812566
Ti      1.92639522    -0.87369778     3.70136382     0.63014445    -1.42827250    -0.12251517
O       3.87358202     4.87447300     0.74646198    -0.19402657    -1.06188014     0.41115297
O       3.68382102     0.99655501     0.89778799     0.43610502     0.21755783    -0.94363763
O       0.22740302     4.73491399     0.92542999    -1.54491861    -0.09123383    -1.33570144
O      -0.03667802     0.92395401     0.72006498     0.64117320     0.84075336    -0.22925687
O       5.86321821     4.65606324     3.80349080    -0.14265154     0.97654699     1.48848982
O       5.89848723     0.93470721     3.77431382    -0.98092173    -0.68550547     2.40695120
O       1.72996325     4.81315724     4.03369280     0.28647576     0.41174304     0.67727870
O       1.66690924     0.96211425     4.08681579     0.89932851     0.14341644     0.99974812
O       3.61267520     2.54312924     3.14189980     1.57321824     0.77871750     0.46453424
O       3.89328123    -0.88161179     3.43683182    -0.79515509    -0.21544747    -1.24088067
O      -0.00821479     2.61121625     3.30852481    -0.67322330     0.82902784    -1.98766043
O       0.19033125    -0.67543877     3.10739379    -2.99126418    -1.40838501     0.07432111
O       5.75162499     6.76326700     1.68186098    -0.02177854    -0.59155655    -1.00389634
O       5.67161302     2.76598901     1.70849400     0.95290055     0.73549133    -0.77599470
O       1.89331000     6.81095699     1.68859402     1.84983948    -0.49868287    -0.70640828
O       1.87567898     3.07164401     1.68143198    -1.37051034    -0.57050358    -1.09321239
