# total energy = -39034.32982956 eV

CRYSTAL
PRIMVEC
        5.93200024     0.00000000     0.00000000
        0.00000000     9.29399984     0.00000000
        0.00000000     0.00000000     9.29399984
PRIMCOORD
46 1
Ti      4.40267302     6.83488601     6.87097198     2.26025866     1.11326906    -1.04133522
Ti      4.41560600     6.94282002     2.42783702     1.55196395    -1.23288685     1.28077572
Ti      4.41146302     2.41609399     7.09540801     0.70159235     0.03077072    -1.81077721
Ti      4.26686999     2.41450397     2.15000600     1.00414831     0.33826886     0.72909879
Ti      1.53716000     6.95780801     7.04667899    -2.45894304     0.47320631    -2.11312645
Ti      1.52876000     7.07091002     2.25103498    -1.22270579    -1.20208219     1.00752006
Ti      1.49632599     2.20711502     7.01130497    -1.04622906     1.87261303     0.04259908
Ti      1.37303901     2.15239999     2.47086500     0.20295113     0.47272475    -1.00946407
Ti      2.99479398     4.71695001     4.53663201     0.50741485    -1.73994997     1.25238636
Ti      2.99770302     4.83716400     9.11807402    -1.31322742    -0.33047430     0.89659260
Ti      3.02037202     0.00934702     4.81029899    -0.01928997     0.81805360    -1.21126155
Ti      3.02101598     9.17540000     0.00609702     0.06473680     1.14840705    -0.11672221
Ti      0.12813001     4.67178701     4.48919402    -0.40050115    -1.19238039     0.88764901
Ti      0.02952502     4.65007402     9.19081202     1.20112857    -0.45314424     0.62948059
Ti      5.91751603     9.21877401     4.82970001    -0.05386977    -0.79782543     0.29592766
Ti      5.92894001     9.19623201     0.12933902     0.08903888     1.62002828    -0.79537620
O       4.31647502     5.79613102     5.29161798     1.20918409    -0.23736845     1.26715041
O       4.42341502     5.53502999     0.82426199    -0.08492691     0.43372598     0.65531890
O       4.45767797     0.78441902     5.85717098    -0.15408087     0.52975852    -1.06200304
O       4.34900698     0.94582898     0.84595900     0.36249740    -0.18072805     0.54530676
O       1.48775199     5.63382098     5.45689099    -0.27140318    -0.44151051    -0.13951402
O       1.55383898     5.59415602     0.78639502    -0.63608062     0.22220742     0.55319850
O       1.49368402     1.03192199     5.51210402    -0.29944415    -0.45230581    -0.47099156
O       1.55964099     0.91655997     0.96529799    -0.15100480    -0.70907143     0.54907702
O       4.59125702     8.33298300     8.45922998    -1.45727096    -0.23158552    -0.52357630
O       4.51799100     8.49910502     3.70600900    -0.25639976    -0.08069719     0.63178584
O       4.39709898     3.85290299     8.39498802     0.55031244    -1.17858564    -0.55027336
O       4.46617598     3.69288900     3.74797799    -0.03266536     0.04188200    -0.64513476
O       1.40965803     8.20477499     8.40213800     0.47080105     1.72949792     1.22035451
O       1.46956200     8.35011701     3.97944398     0.03691848    -0.04687714    -2.19273940
O       1.43972699     3.84087400     8.14168299     0.17898921     0.78833935     2.15791200
O       1.62301002     3.76450203     3.61182201    -1.63071919    -1.05565473     0.00341443
O       2.96351500     6.19714699     7.87793798     0.70201710    -0.83489201     0.37346316
O       2.86917201     5.89541102     3.11366698     0.28559567     1.93299053    -1.02123381
O       2.91800300     1.61652098     8.06711000     0.49724614    -1.60699766    -0.19610762
O       3.12538201     1.42117599     3.19785098    -1.15797387     0.11518521     0.19361597
O       0.05122801     6.00930002     7.79725300    -1.44436170    -0.05417214    -0.23203006
O       0.00558499     5.92129499     3.04522002     0.45230581     0.57672976     0.32394883
O       0.02886699     1.49016599     8.06807898    -0.16336487     0.04903430    -0.86892186
O       2.86640600     7.95686100     6.03651000     0.67364393    -0.94282671     1.37884226
O       3.10607202     7.83006902     1.56084201    -1.64057397     1.79251851    -2.13860404
O       2.91698201     3.26909798     6.10242199     1.19252745    -0.34880293     0.00657817
O       5.78612301     7.82163299     5.98154399     0.94112464     0.09624183     0.91650297
O       5.85007302     7.93202301     1.53891200     0.89875001    -0.11606375    -0.13925254
O       5.92771698     3.29484102     6.00317601    -0.82157935    -0.40547752     0.38476059
O       5.92567599     3.16362200     1.45578302     0.68146883    -0.32309240     0.09518510
