# total energy = -19959.88908433 eV

CRYSTAL
PRIMVEC
        7.60600008     0.00000000     0.00000000
        0.00000000     7.60600008     0.00000000
       -1.89786986    -1.89786986     4.85670466
PRIMCOORD
24 1
Ti      3.83691898     6.53183498     1.21644298    -0.39877825    -0.10261714     2.02317020
Ti      3.71833697     2.76233202     1.11020397     0.21017671     0.72367196     1.30549200
Ti      0.11004802     6.70188800     1.27704001    -0.75250741     0.95831812    -0.40540733
Ti     -0.04138103     3.01340001     1.24691501     0.42325747    -1.29692457    -1.78284704
Ti      5.72676123     2.95407622     3.62217181     0.06468384    -1.79247069    -0.88866691
Ti      5.70552423    -0.97093479     3.62715979    -0.46477309     1.93506155     1.23571506
Ti      1.96083423     2.82545324     3.61421283    -0.04555585    -0.91986829    -0.27171763
Ti      1.83336623    -1.13769680     3.75513681     0.52500275     1.78861300    -1.22986194
O       3.70960999     4.68059902     0.77978798     0.87738954     1.49521737    -0.60843636
O       3.64319798     0.85325101     0.83460000     0.38198894    -0.79042862     0.44776498
O      -0.01917299     4.82244499     0.65403599    -0.05218339     0.22878199     1.14790954
O      -0.09799902     0.97742801     0.74047302     0.55452725     0.37756047     1.02025782
O       5.75765920     4.83519122     4.05908183     0.00781204    -0.98915260     0.27352537
O       5.83438524     1.00669225     3.81864681    -0.41876164     0.29907957     1.34556677
O       1.73458423     4.67662924     3.93971881     0.78638659    -1.11643100     1.90658400
O       1.85512721     0.80751422     4.12601481     0.30078396     1.90574814    -1.36273737
O       3.87963824     2.78932721     3.00736284    -0.70214874    -0.16934089     2.52855466
O       3.69229023    -1.00459575     3.23972780     1.14779538    -0.17312375    -0.53788964
O       0.00020320     2.97042325     3.08727479     1.08525173    -0.55653425     1.80182282
O       0.03354624    -0.89832077     3.30523280    -0.39710446    -0.30198621    -0.67013643
O       5.73340103     6.57402602     1.77872698    -1.11132736    -0.15247162    -2.51301979
O       5.81818702     3.01130299     1.64968399    -1.92912204     0.04214194    -1.66204140
O       1.87185498     6.55982100     1.72400402     0.36377395     0.02789339    -1.08731813
O       1.95480198     3.24836201     1.79725300    -0.45656793    -1.42073763    -2.01628299
