# total energy = -4940.45456960 eV

CRYSTAL
PRIMVEC
        4.95455143     0.00000000     0.00000000
       -0.00000685     2.38552461     0.00000000
       -2.47730348    -1.19282895     5.33764662
PRIMCOORD
6 1
Ti     -0.00021166     1.78922256     1.33441137    -0.02850737    -0.02515440    48.68704304
Ti      2.47745273    -0.59652705     4.00323458     0.02850737     0.02515440   -48.68704304
O       0.00005272     0.59636971     0.86945889     0.02677291     0.02455173   -39.59972546
O       2.47718819     0.59632569     4.46818712    -0.02677291    -0.02455173    39.59972546
O      -0.00002024    -0.59639684     3.53828210    -0.00117268     0.00064149    -0.83222552
O       2.47726110     1.78909224     1.79936391     0.00117268    -0.00064149     0.83222552
