# total energy = -4988.39198405 eV

CRYSTAL
PRIMVEC
        4.06270870     0.00000000     0.00000000
        1.00004234     3.93770458     0.00000000
       -2.53141251    -1.96888106     5.22654766
PRIMCOORD
6 1
Ti      0.74989983     2.95342922     1.30663683    -0.00019283     0.00019283    -0.00000000
Ti      1.78143889    -0.98460556     3.91991049     0.00019283    -0.00019283     0.00000000
O       0.25005319     0.98442054     0.85136184    -0.00058904    -0.00109812    -1.13401272
O       2.28128535     0.98440303     4.37518548     0.00058904     0.00109812     1.13401272
O      -0.25002415    -0.98439796     3.46463550    -0.00109812    -0.00058904    -1.13401272
O       2.78136268     2.95322147     1.76191182     0.00109812     0.00058904     1.13401272
