# total energy = -19960.51853522 eV

CRYSTAL
PRIMVEC
        5.93400000     0.00000000     0.00000000
        0.00000000     9.29699974     0.00000000
        0.00000000     0.00000000     4.64899994
PRIMCOORD
24 1
Ti      4.44714698     7.07790198     2.18826302    -1.07739315    -1.32592456     0.54918835
Ti      4.46462099     2.22534999     2.38164101     0.56944660     1.58037800    -0.38573967
Ti      1.48575599     6.98433001     2.38531202     1.21204316    -0.42244398     1.02969172
Ti      1.47929399     2.24611501     2.30937101    -0.76714368     0.95430257    -0.73338817
Ti      2.98151602     4.61503100     0.10266499     0.45536182    -0.35888140    -0.77558770
Ti      3.00153898     0.03605999     4.58625598    -2.00086459     0.05915134     1.41064990
Ti      0.05066401     4.68239098     4.57322002    -0.31802861    -1.05117741    -0.29412968
Ti      5.88037001     9.28833097     0.06315101     1.50589619     0.90253391    -0.28310813
O       4.47166799     5.51242100     0.94368100    -0.28816318     0.78921583     0.30493680
O       4.40650802     0.90063200     0.95713400     0.66469366     0.28073680     0.43635416
O       1.46419900     5.52812698     0.84006301     0.12602575     0.57869614     0.91282629
O       1.44113000     0.92281501     0.82542200    -0.17995466     0.37835648     1.11361615
O       4.39379300     8.49681500     3.84803101     1.83529294    -2.07282028    -2.25424279
O       4.43650501     3.77071600     3.73786002    -0.42859509    -0.37499194    -0.09404096
O       1.59012101     8.39791500     3.78521699    -1.92440895    -0.79466940    -1.05929027
O       1.42926399     3.79204898     3.59303299     0.54421455    -0.04821669     1.14103647
O       2.97528200     6.19834399     3.33760802     0.08600112     0.03474076    -1.24352839
O       2.94007700     1.32666202     3.30129900     0.22747664     1.83991630    -1.66857484
O       5.91678301     6.05087600     3.17789597     0.05212631     1.03289120    -0.24661491
O       5.88391798     1.40536899     3.23969800     0.19395690    -0.49235898     0.29783670
O       2.95867800     7.81939102     1.31195799     0.24881346    -0.36022557     1.28938172
O       2.90514299     3.14858199     1.38524099     0.42456925     0.29810949     0.05811287
O       0.04796500     8.01594698     1.44737598    -0.52342743    -1.13478817     0.73204425
O       0.03360302     3.18866399     1.45234400    -0.63793901    -0.29253071    -0.23742990
