# total energy = -19899.34638357 eV

CRYSTAL
PRIMVEC
        8.62280392     0.00000000     0.00000000
        0.00002824     3.93311601     0.00000000
        0.00000000     0.00000000    13.12323363
PRIMCOORD
24 1
Ti      3.12536828     2.33076092     4.86862608     0.18752554    -0.27250258     2.78647137
Ti      5.49746350     1.60235515     8.25460774    -0.18752554     0.27250258    -2.78647137
Ti      7.43662266     1.60235649     1.69293834     0.17955408     0.27264708    -2.78747692
Ti      1.18620912     2.33075971    11.43029560    -0.17955408    -0.27264708     2.78747692
Ti      3.12535435     0.36420298     1.69299099     0.18752554    -0.27250258    -2.78647137
Ti      5.49747743     3.56891315    11.43024295    -0.18752554     0.27250258     2.78647137
Ti      1.18619519     0.36420151     8.25455509    -0.17955408    -0.27264708    -2.78747692
Ti      7.43663659     3.56891462     4.86867872     0.17955408     0.27264708     2.78747692
O       2.72918173     1.38491699     6.69668572     1.47881450     0.96833952    -2.26643419
O       5.89365006     2.54819901     6.42654810    -1.47881450    -0.96833952     2.26643419
O       1.58229033     1.38493286     0.13511103    -1.47855147     0.96860280    -2.26756033
O       7.04054151     2.54818321    12.98812240     1.47855147    -0.96860280     2.26756033
O       5.89363619     0.58164101     0.13506846    -1.47881450    -0.96833952    -2.26643419
O       2.72919559     3.35147506    12.98816497     1.47881450     0.96833952     2.26643419
O       7.04052765     0.58162514     6.69672829     1.47855147    -0.96860280    -2.26756033
O       1.58230408     3.35149093     6.42650553    -1.47855147     0.96860280     2.26756033
O       0.31330345     2.39234410     3.54491283    -2.02403589     0.59402815     0.05670596
O       8.30952833     1.54077191     9.57832099     2.02403589    -0.59402815    -0.05670596
O       4.62471639     1.54073527     3.01674580    -2.02350419    -0.59421301    -0.05630821
O       3.99811540     2.39238080    10.10648783     2.02350419     0.59421301     0.05630821
O       0.31328959     0.42578609     3.01670392    -2.02403589     0.59402815    -0.05670596
O       8.30954220     3.50732998    10.10652970     2.02403589    -0.59402815     0.05670596
O       3.99810153     0.42582274     9.57836280     2.02350419     0.59421301    -0.05630821
O       4.62473025     3.50729333     3.54487095    -2.02350419    -0.59421301     0.05630821
