# total energy = -4984.42144571 eV

CRYSTAL
PRIMVEC
        4.04228241     0.00000000     0.00000000
        0.00000000     3.80019003     0.00000000
        0.00000000    -0.00007484     5.40471465
PRIMCOORD
6 1
Ti      2.02114103     1.90005771     2.70235744     0.00000000     0.00000000     0.00000000
Ti      0.00000000     0.00000000     0.00000000     0.00000000     0.00000000     0.00000000
O       2.02114103     0.74058653     1.05329934     0.00000000     0.45012371     1.39194383
O       2.02114103     3.05952889     4.35141559     0.00000000    -0.45012371    -1.39194383
O       0.00000000     1.15944130     3.75565783    -0.00000000    -0.44941126     1.39097838
O       0.00000000     2.64067412     1.64905705    -0.00000000     0.44941126    -1.39097838
