# total energy = -19058.75003164 eV

CRYSTAL
PRIMVEC
        7.60600008     0.00000000     0.00000000
        0.00000000     7.60600008     0.00000000
       -1.89786986    -1.89786986     4.85670466
PRIMCOORD
22 1
Ti      3.96730000     6.67175802     1.64982401     0.65846182    -1.00048603    -4.01857171
Ti      3.95743402     2.77700902     1.69597700     0.40326097     0.39842909    -2.08494535
Ti      0.28250397     6.46390900     1.23658500    -2.54195396    -2.74728928    -2.30669588
Ti      0.28157199     2.38640699     0.60992700     0.84425238     4.58923727     1.89504849
Ti      6.03739722     2.52756322     3.70911680    -2.16631874     4.25333229     2.87995440
Ti     -0.60009780     0.93996421     2.53511183    -1.96576208    -1.46495033    -2.26238882
Ti      1.17728423     2.76821822     4.22912981     4.74059071     1.36712188    -0.36644764
Ti      0.93978921    -0.48902577     4.05879983     3.18513623    -1.21504416     0.27151039
O       3.48323802     4.52510801     1.10081701     0.74260172     1.73009005     5.36574876
O       3.47648000     0.96180600     0.79589200     1.14846001     0.41129593     6.70255630
O       0.10392602     4.34077298     0.88284202     1.58607171    -0.54727957    -0.54282667
O       7.26774099     0.78066699     0.63043701     0.55968411    -3.34268115     1.53351242
O       5.70637224     4.15883825     4.29571179     0.69634318     2.81752516    -1.36630581
O       5.51868820     0.67362121     3.79346480    -7.11831103     5.72386680    -3.28011256
O       1.41853524     4.71412023     4.75936182    -0.12646310    -2.14307210     0.95646256
O       1.94937024     1.05136825     4.48324983     0.03797624    -0.79756575    -1.17666554
O       2.86289925     2.89203321     3.08800284     0.60299025    -0.39936935    -0.36502042
O       0.18121220     2.79055124     2.77273083     1.29721433    -1.50480065    -0.48955956
O       6.07406401     6.47426198     1.48531301    -3.33427158     0.45663066     1.17022467
O       6.05687898     2.73713001     1.71254898    -5.79709956    -1.35364389    -0.73655422
O       1.59018621     6.23995722     2.67256779     1.98575061     0.28997658    -2.78448442
O      -0.76600677    -0.50495675     3.73319680     4.56138553    -5.52132319     1.00556036
