# total energy = -19073.07006490 eV

CRYSTAL
PRIMVEC
        5.17600016     0.00000000     0.00000000
        0.00000000     5.50899976     0.00000000
        0.00000000     0.00000000     9.26300011
PRIMCOORD
22 1
Ti      1.63579298     3.34449399     3.32412098     1.65685189     0.40402741    -0.35509673
Ti      3.88785700     2.36551301     5.79364902    -2.14381412    -1.08001491    -0.37407379
Ti      4.25892598     2.03079803     1.54300598    -0.13313717     0.86911675    -1.91147244
Ti      0.92756702     3.36701302     8.25230400     0.38764228    -0.32207090     0.97727770
Ti      1.67427401     0.52269102     1.31599699     0.86874497     0.67691566    -0.98273487
Ti      3.46339398     5.34564401     7.81064102    -0.69684326     1.60726969     0.61744500
Ti      1.12261202     5.36297700     6.12939002    -0.03386016     1.92430379    -0.36739869
Ti      4.28452599     5.06229299     3.48859901    -1.59154224    -1.47328688     1.42984756
O       3.25075400     3.68523403     4.55246600     1.24063770    -0.23228306     0.89821779
O       0.80605999     2.07422199     0.29847999    -0.10579554    -0.01985844    -0.10182549
O       4.37729902     3.62280900     7.64863500     0.45114367    -0.24424178    -0.54500157
O       3.49171502     0.84974500     0.16231703     0.61959135     0.95474300     0.27983769
O       1.79029702     4.84785798     9.20750899    -1.55133712    -1.77015993    -1.98149723
O       3.92777501     1.14648199     4.28809699     0.26369090    -0.03626671     2.25207560
O       0.98502800     4.80968202     4.33782499    -1.61570677     0.86979835     1.27022211
O       5.09501101     3.43166599     2.55006098     0.08458007    -0.22094963    -0.55650726
O       4.93043900     0.91973202     6.85922002     0.03299292    -0.89495943     0.06332475
O       2.56532198     1.92066799     2.38544600    -0.52825391    -0.21391226    -0.25641724
O       2.11629301     3.98256401     6.86812400    -0.08646675    -0.50690423     0.26509498
O       5.15126800     0.70104899     2.27949900     1.93665178    -1.58656047    -0.46975589
O       2.41628698     1.12369302     6.72333402     0.36003479    -0.10371937    -0.43253479
O       2.57754602     4.52585500     2.27885902     0.58419496     1.39901385     0.28097283
