# total energy = -19932.44516454 eV

CRYSTAL
PRIMVEC
        5.12164780     0.00000000     0.00000000
        2.56518985     4.80967889     0.00000000
        0.00000000     0.00000000     9.48578212
PRIMCOORD
24 1
Ti      3.37648015     2.85021126     3.51915753     4.41314106    -4.95269343     1.16677245
Ti      4.31035764     1.95946776     5.96662469    -4.41314106     4.95269343    -1.16677245
Ti      5.46215219     1.95946947     1.22369569    -9.31593039     2.10881625     1.99978575
Ti      2.22468576     2.85020977     8.26208659     9.31593039    -2.10881625    -1.99978575
Ti      2.09388542     0.44537198     1.22373374     4.41350847    -4.95228154    -1.16814619
Ti      5.59295247     4.36430723     8.26204859    -4.41350847     4.95228154     1.16814619
Ti      0.94209079     0.44537013     5.96658664     9.31567097    -2.10887153     1.99874497
Ti      6.74474709     4.36430903     3.51919553    -9.31567097     2.10887153    -1.99874497
O       2.52428087     1.69356974     4.84052203    -0.50037363     0.82027374    -1.46247719
O       5.16255698     3.11610932     4.64526019     0.50037363    -0.82027374     1.46247719
O       1.84307732     1.69358910     0.09766145     2.15581244    -0.17821274    -1.47899705
O       5.84376059     3.11608999     9.38812047    -2.15581244     0.17821274     1.47899705
O       3.87996215     0.71126984     0.09763066     0.49991160    -0.82071906    -1.46265999
O       3.80687569     4.09840916     9.38815125    -0.49991160     0.82071906     1.46265999
O       4.56116576     0.71125052     4.84055276    -2.15650766     0.17767049    -1.47983754
O       3.12567204     4.09842855     4.64522941     2.15650766    -0.17767049     1.47983754
O       1.74637517     2.92551932     2.56234640     0.43812360    -2.27892641    -1.81051881
O       5.94046268     1.88415974     6.92343577    -0.43812360     2.27892641     1.81051881
O       3.75178757     1.88411482     2.18057484     2.35106800    -1.73888296    -3.07778029
O       3.93505028     2.92556424     7.30520718    -2.35106800     1.73888296     3.07778029
O       0.46378034     0.52067985     2.18054456     0.43829149    -2.27902463     1.80891727
O       7.22305749     4.28899916     7.30523746    -0.43829149     2.27902463    -1.80891727
O       2.65245545     0.52072477     6.92346600    -2.35149017     1.73911282    -3.07727455
O       5.03438238     4.28895424     2.56231612     2.35149017    -1.73911282     3.07727455
