# total energy = -4986.96407747 eV

CRYSTAL
PRIMVEC
        3.29316207     0.00000000     0.00000000
        0.00000000     5.15989125     0.00000000
        0.00000000    -0.00006696     5.15989125
PRIMCOORD
6 1
Ti      1.64658097     2.57991208     2.57994556     0.00000000     0.00000000     0.00000000
Ti      0.00000000     0.00000000     0.00000000     0.00000000     0.00000000     0.00000000
O       1.64658097     1.00557374     1.00558679     0.00000000    -0.75541507    -0.75541507
O       1.64658097     4.15425043     4.15430434     0.00000000     0.75541507     0.75541507
O       0.00000000     1.57431119     3.58553340     0.00000000     0.75555185    -0.75555185
O       0.00000000     3.58551297     1.57435773     0.00000000    -0.75555185     0.75555185
