# total energy = -19915.94793374 eV

CRYSTAL
PRIMVEC
        4.88157056     0.00000000     0.00000000
        2.44494658     4.58422520     0.00000000
        0.00000000     0.00000000     9.04113608
PRIMCOORD
24 1
Ti      3.21820764     2.71660761     3.35419702     6.20140002    -5.57478878     1.26387071
Ti      4.10830963     1.86761770     5.68693916    -6.20140002     5.57478878    -1.26387071
Ti      5.20611380     1.86761934     1.16633495   -13.00278596     3.99716470     2.73833747
Ti      2.12040362     2.71660619     7.87480128    13.00278596    -3.99716470    -2.73833747
Ti      1.99573454     0.42449516     1.16637122     6.20180266    -5.57421671    -1.26383677
Ti      5.33078282     4.15973033     7.87476506    -6.20180266     5.57421671     1.26383677
Ti      0.89793028     0.42449340     5.68690290    13.00302096    -3.99674124     2.73875193
Ti      6.42858707     4.15973204     3.35423324   -13.00302096     3.99674124    -2.73875193
O       2.40595520     1.61418366     4.61362256    -2.01911274    -0.17448130    -1.56190821
O       4.92056212     2.97004169     4.42751362     2.01911274     0.17448130     1.56190821
O       1.75668307     1.61420211     0.09308357     2.77436069     0.71216781    -3.39904103
O       5.56983431     2.97002327     8.94805232    -2.77436069    -0.71216781     3.39904103
O       3.69808893     0.67792907     0.09305423     2.01895231     0.17433371    -1.56195681
O       3.62842839     3.90629623     8.94808166    -2.01895231    -0.17433371     1.56195681
O       4.34736112     0.67791065     4.61365185    -2.77429205    -0.71268229    -3.39935317
O       2.97915616     3.90631471     4.42748428     2.77429205     0.71268229     3.39935317
O       1.66451384     2.78838560     2.44223641     0.22348217    -5.51125320    -4.61805138
O       5.66200349     1.79583975     6.59889972    -0.22348217     5.51125320     4.61805138
O       3.57592253     1.79579693     2.07836039     2.92489293    -3.79968719    -5.61095856
O       3.75059480     2.78842841     6.96277560    -2.92489293     3.79968719     5.61095856
O       0.44204064     0.49627298     2.07833153     0.22336776    -5.51097347     4.61783180
O       6.88447667     4.08795232     6.96280445    -0.22336776     5.51097347    -4.61783180
O       2.52812160     0.49631579     6.59892853    -2.92490938     3.79975172    -5.61033070
O       4.79839571     4.08790951     2.44220756     2.92490938    -3.79975172     5.61033070
