# total energy = -19959.23336996 eV

CRYSTAL
PRIMVEC
        7.60600008     0.00000000     0.00000000
        0.00000000     7.60600008     0.00000000
       -1.89786986    -1.89786986     4.85670466
PRIMCOORD
24 1
Ti      3.84274998     6.84087598     1.04630699     0.28132353    -0.11553745    -0.38292173
Ti      3.76248798     2.91681198     1.23728499     0.94209857    -0.41181786    -1.47432766
Ti     -0.09966598     6.65218598     1.24307498     0.13380514    -2.36416546     0.79282207
Ti     -0.09086598     2.61069998     1.25986297     0.04525889     1.61074196     1.88696931
Ti      5.52512522     2.84337721     3.77517082     0.98054146    -1.48670085    -0.00095079
Ti      5.66964422    -0.98725880     3.63889683     0.27547838     0.72212184    -0.16620131
Ti      1.92273723     2.86742620     3.63109882    -1.23814373    -0.18254736     0.55651086
Ti      1.97439323    -0.87628779     3.43087281     0.24136677     0.58812207     1.51318219
O       4.02936900     4.81473302     0.86559798    -0.78730885     0.28887897    -0.31511915
O       4.21221900     1.17707600     0.59178998    -1.74044491    -2.03886371    -0.08681076
O      -0.24181998     4.75758997     0.88389302     0.32563291    -0.12652018     0.05458711
O      -0.14346498     0.79995698     0.78338802     0.30818848     1.70848120    -0.10717493
O       5.61222621     4.66640522     4.15816381    -0.16914420     0.98402454    -1.41950478
O       5.86936725     0.86519321     4.30817979    -0.15545950    -0.19394815    -1.67483342
O       2.23488724     4.85716621     3.94455183    -0.74931256    -0.40392791     0.23957420
O       1.91049921     1.04958624     4.05843882    -0.96135203    -1.30635975     0.28630813
O       3.75455625     2.34361121     3.39387480     2.06186224     1.94978241    -1.36600962
O       3.88425822    -0.84527678     3.06745584    -0.99046721    -0.01227934     0.61958621
O       0.05982322     2.75776623     3.35064181    -0.61604992     0.55864333    -0.50444291
O       0.07265720    -1.04624978     3.36189979    -0.85149106     0.00952003    -1.56744097
O       5.60017102    -0.58933999     1.65997903     3.01581462    -1.36060799     0.63446031
O       5.71251498     2.76008201     1.70915298    -0.26652785     0.50848443     1.09412333
O       1.92624102     6.72787499     1.37097501    -0.14872989     0.31982118     1.32081321
O       1.93642598     2.64700800     1.65210101     0.06306070     0.75465480     0.06680114
