# total energy = -39040.38390260 eV

CRYSTAL
PRIMVEC
        7.60629642    -0.00000847    -0.00005503
       -0.00000847     7.60629642    -0.00005503
       -3.80314186    -3.80314186     9.70738094
PRIMCOORD
46 1
Ti      1.91321548     4.74126650     6.07408387     0.05338178    -0.00003394    -0.05087341
Ti      3.80313223     6.64315374     1.20231475     0.00010413    -0.04833599     0.06596579
Ti      1.81986318     0.96037560     6.01395666    -0.02696728    -0.02157336    -0.00178975
Ti      3.80294607     2.86271687     1.19834826     0.00024297     0.07379660    -0.01668852
Ti     -1.91356287     4.74121519     6.07411462    -0.05328176    -0.00001800    -0.05086132
Ti      0.00000884     6.67735317     1.37919833     0.00001774     0.00260787    -0.00235642
Ti     -1.81974865     0.96033026     6.01411185     0.02609516    -0.02165590    -0.00192987
Ti     -0.00019934     2.78554810     1.16586862     0.00040392     0.04943925     0.03542056
Ti      3.80314895     0.91365566     8.62479326     0.00047720     0.04219105     0.04375865
Ti      5.71071885     2.85984542     3.61255534     0.02547244    -0.01987181    -0.04728286
Ti      3.80321886    -2.80876546     8.47386654    -0.00010927     0.03032180     0.10426624
Ti      5.66975150    -0.95990763     3.66760283     0.02321167     0.02804586    -0.04011951
Ti      0.00020288     0.95899067     8.43783494    -0.00023063    -0.00300871    -0.00873198
Ti      1.89587605     2.85992014     3.61253165    -0.02560768    -0.01997516    -0.04737002
Ti      0.00006054    -2.86801610     8.49650177     0.00018820    -0.06778767     0.00377181
Ti      1.93662883    -0.95987071     3.66758465    -0.02313917     0.02804380    -0.04010280
O       2.00433079     2.83328038     5.64149899    -0.00965398    -0.03014465     0.05961722
O       3.80316512     4.75094852     0.76072423     0.00001903     0.01468023    -0.05035533
O       2.04323204    -0.92722535     5.69875568    -0.00074922     0.03544987     0.02654999
O       3.80315314     0.95468627     0.76212296    -0.00002777    -0.00103358    -0.00794471
O      -2.00436550     2.83322558     5.64154202     0.00957916    -0.02990734     0.05959408
O       0.00007411     4.84742800     0.80625081    -0.00008742    -0.03770884    -0.06741306
O      -2.04325191    -0.92722202     5.69883051     0.00064740     0.03523647     0.02641578
O       0.00012506     0.87058708     0.77863183    -0.00004782    -0.05475552    -0.01029033
O       5.72459030     4.75153243     4.08978183     0.02521636     0.01154631    -0.01092411
O       3.80306986    -0.95140781     8.90761594    -0.00002545    -0.02200634     0.00403201
O       5.66799691     0.95593418     4.04391943    -0.02924580    -0.01108737     0.05150436
O       0.00000241     2.83845454     8.89750797    -0.00009796    -0.02899923    -0.01921566
O       1.88160900     4.75156969     4.08977848    -0.02511069     0.01147715    -0.01100664
O      -0.00003602    -0.93096811     8.84327967    -0.00001980     0.03689740    -0.05608478
O       1.93835131     0.95596536     4.04387300     0.02939158    -0.01097142     0.05182677
O       2.02798555     1.09711346     8.02093833     0.06288406     0.03063162     0.01791931
O       3.80317073     2.87991922     3.16440675    -0.00008896     0.03235246     0.02573367
O       1.91671766    -2.96961872     8.09202431     0.04312384     0.01860914     0.03057300
O       3.80316836    -0.97731113     3.22940354     0.00006094    -0.03099852     0.01907708
O      -2.02810713     1.09715343     8.02085193    -0.06270100     0.03062082     0.01771748
O       0.00000621     2.83175415     3.22984932     0.00001877    -0.00754233    -0.04856533
O      -1.91673092    -2.96961709     8.09203068    -0.04317809     0.01856749     0.03073858
O       0.00000152    -0.92630605     3.32358666     0.00000077    -0.01252539    -0.02016568
O       3.80309922     4.71489627     6.49021077    -0.00005348    -0.01340188     0.05792158
O       5.68677277     6.65819269     1.67636216     0.04358947     0.00245823    -0.03709383
O       5.71924812     2.85335092     1.59943431     0.04212137    -0.01044588    -0.02134325
O      -0.00003818     4.77874286     6.47695387     0.00005914     0.00769866    -0.00461719
O       1.91955917     6.65818445     1.67637403    -0.04365606     0.00246595    -0.03713677
O       0.00004157     0.91795023     6.45671897    -0.00015452    -0.02899228    -0.00080604
O       1.88704872     2.85339897     1.59947306    -0.04207226    -0.01035692    -0.02133374
