# total energy = -39040.31149321 eV

CRYSTAL
PRIMVEC
        7.60629642    -0.00000847    -0.00005503
       -0.00000847     7.60629642    -0.00005503
       -3.80314186    -3.80314186     9.70738094
PRIMCOORD
46 1
Ti      1.91442325     4.75395184     6.21302440    -0.02871049    -0.00005425    -0.19911633
Ti      3.80487229     6.63819916     1.20299440     0.00604801     0.02352535    -0.03626697
Ti      1.81567331     0.95087039     6.00289413     0.01563591     0.00023808    -0.14529386
Ti      3.80493328     2.86998324     1.20303144     0.00613980    -0.02394649    -0.03687426
Ti     -1.91063826     4.75405003     6.06742072     0.04044707    -0.00006351     0.00490232
Ti     -0.00164115     6.67275599     1.21776423    -0.02051690    -0.03402856     0.07937307
Ti     -1.81370753     0.95088245     6.03042196    -0.03472842    -0.00011004     0.00816120
Ti     -0.00167426     2.83534173     1.21777727    -0.02058092     0.03330737     0.07936433
Ti      3.79991927     0.95069529     8.61741964     0.04562527     0.00048465    -0.10745210
Ti      5.69779116     2.86616849     3.63645275    -0.02390021    -0.02237940     0.04391472
Ti      3.83538582    -2.85246159     8.51028299    -0.05797865     0.00002417     0.01896446
Ti      5.69773652    -0.96499162     3.63646381    -0.02394315     0.02276713     0.04336964
Ti      0.01363973     0.95058595     8.45691183    -0.02757149     0.00000437    -0.22355545
Ti      1.90596787     2.76502077     3.59499732     0.01964349     0.16954529     0.09751787
Ti     -0.02991653    -2.85259885     8.51266131     0.06709708    -0.00007636    -0.00412662
Ti      1.90592607    -0.86331667     3.59514788     0.01986718    -0.17032511     0.09682907
O       1.97398629     2.91545670     5.59859396     0.03511974    -0.02498522     0.08046450
O       3.81278397     4.75392950     0.76635736     0.06828364     0.00016686    -0.06223923
O       1.97400192    -1.01384415     5.59863117     0.03504286     0.02487595     0.08047453
O       3.78808411     0.95077376     0.78910583    -0.02861048     0.00006736     0.02656953
O      -1.98896963     2.82964727     5.67435017    -0.06730045    -0.00360315    -0.09744896
O      -0.01097584     4.75392844     0.82746279    -0.06606452     0.00003548     0.01900097
O      -1.98896213    -0.92805988     5.67437548    -0.06728605     0.00358103    -0.09737414
O       0.01349266     0.95079278     0.81811371     0.02721334     0.00004165     0.17120494
O       3.80030866     2.86551501     8.93012500    -0.00757859     0.00350699     0.12437562
O       5.71558529     4.75391894     4.08771111     0.02854800    -0.00032653     0.03859022
O       3.80032045    -0.96396445     8.93018865    -0.00772051    -0.00323625     0.12421570
O       5.66790483     0.95076428     4.02840564     0.01038495    -0.00003265    -0.02847524
O       0.00354144     2.83267656     8.88642951     0.00899244     0.05241941     0.02622115
O       0.00353494    -0.93109787     8.88643417     0.00921869    -0.05245387     0.02628183
O       1.94514000     0.95081733     4.04541022    -0.00308815     0.00069728    -0.25209213
O       2.00425323     0.95087516     7.97941692    -0.00536178    -0.00010156     0.13459704
O       3.78137486     2.95025134     3.23360584     0.03671948     0.12038886    -0.13432116
O       1.90088196    -2.85232522     8.11730794    -0.02117613    -0.00008150     0.05395153
O       3.78133744    -1.04861085     3.23360747     0.03715657    -0.12039349    -0.13396841
O      -2.00411878     0.95087149     7.99098349     0.06466610    -0.00000926     0.13616027
O       0.02017044     2.92036227     3.26537556    -0.03346241    -0.00053710    -0.04732940
O      -1.90249372    -2.85230994     8.08135811     0.03142069    -0.00001697     0.12170373
O       0.02021082    -1.01875565     3.26535574    -0.03405016     0.00037821    -0.04695967
O       3.81151034     4.75389402     6.50040804     0.03479989     0.00017586     0.18558949
O       5.70472564     6.66323521     1.65757177    -0.03278003     0.01923572    -0.01444472
O       5.70473450     2.84449095     1.65762305    -0.03282580    -0.01915447    -0.01490341
O      -0.00992062     4.75386069     6.47987518    -0.05757731     0.00009616     0.06091254
O       1.89974916     6.61896159     1.61574761     0.02875317     0.02451779    -0.00420118
O       0.01019620     0.95076801     6.47032526    -0.00293337    -0.00009693    -0.19229982
O       1.89974937     2.88886878     1.61574016     0.02892235    -0.02406836    -0.00396670
