# total energy = -19925.08142252 eV

CRYSTAL
PRIMVEC
        7.23182024     0.00000000     0.00000000
        0.00002421     3.70588767     0.00000000
        0.00000000     0.00000000    10.92613121
PRIMCOORD
24 1
Ti      2.62120147     2.19610567     4.05351675    -0.14556897     0.49748859     1.16882367
Ti      4.61064314     1.50978216     6.87261457     0.14556897    -0.49748859    -1.16882367
Ti      6.23698780     1.50978348     1.40950526    -0.14419883    -0.49715358    -1.16829403
Ti      0.99485687     2.19610452     9.51662622     0.14419883     0.49715358     1.16829403
Ti      2.62118942     0.34316189     1.40954907    -0.14556897     0.49748859    -1.16882367
Ti      4.61065525     3.36272605     9.51658241     0.14556897    -0.49748859     1.16882367
Ti      0.99484476     0.34316047     6.87257075     0.14419883     0.49715358    -1.16829403
Ti      6.23699985     3.36272747     4.05356057    -0.14419883    -0.49715358     1.16829403
O       2.28892538     1.30490610     5.57552113     3.07814384    -0.09338173     0.26975793
O       4.94291929     2.40098173     5.35061018    -3.07814384     0.09338173    -0.26975793
O       1.32704426     1.30492101     0.11249064    -3.07695419    -0.09408518     0.27021636
O       5.90480046     2.40096682    10.81364035     3.07695419     0.09408518    -0.27021636
O       4.94290719     0.54803790     0.11245520    -3.07814384     0.09338173     0.26975793
O       2.28893743     3.15784993    10.81367584     3.07814384    -0.09338173    -0.26975793
O       5.90478841     0.54802298     5.57555657     3.07695419     0.09408518     0.27021636
O       1.32705615     3.15786490     5.35057475    -3.07695419    -0.09408518    -0.27021636
O       0.26276358     2.25413099     2.95142061    -0.52167651     0.16688343     0.65317203
O       6.96908103     1.45175690     7.97471070     0.52167651    -0.16688343    -0.65317203
O       3.87868276     1.45172230     2.51167977    -0.52112475    -0.16661937    -0.65326202
O       3.35316186     2.25416558     8.41445138     0.52112475     0.16661937     0.65326202
O       0.26275153     0.40118710     2.51164488    -0.52167651     0.16688343    -0.65317203
O       6.96909313     3.30470073     8.41448627     0.52167651    -0.16688343     0.65317203
O       3.35314981     0.40122170     7.97474554     0.52112475     0.16661937    -0.65326202
O       3.87869486     3.30466614     2.95138572    -0.52112475    -0.16661937     0.65326202
