# total energy = -19073.89253887 eV

CRYSTAL
PRIMVEC
        5.93400000     0.00000000     0.00000000
        0.00000000     9.29699974     0.00000000
        0.00000000     0.00000000     4.64899994
PRIMCOORD
22 1
Ti      4.39449601     6.85502200     2.36148200    -0.03556454     0.60771542    -0.53398696
Ti      4.31904602     2.40956098     2.24109598     1.89326028    -1.93487077     0.52459189
Ti      1.50401901     7.05847202     2.47974899    -0.05676124     0.50890069     0.68138116
Ti      1.61759701     2.49829898     2.19554302    -1.88784271    -0.54188102     0.40516590
Ti      3.06089102     4.54645000     4.58413102    -2.38805307     2.78105379     1.47962337
Ti      2.98529101     9.26909501     4.60181802     1.17623540     0.22042256     0.42701000
Ti      5.78858897     4.57139901     4.53422801     2.08660063     0.74029415     0.99577165
Ti      0.02598398     9.15455301     0.20128299    -1.02163568    -0.48154877     1.31694935
O       4.46412700     5.66762302     0.81545299     0.08585662    -1.18769712     0.82449061
O       4.44987499     0.96111897     0.92765698     0.79893307    -0.55884028    -0.09143206
O       1.57658699     0.79065003     1.01944399    -1.05019601     1.23900710     0.33266205
O       4.50663698     8.16271699     3.80663602     0.13685730     2.82629211     0.70177053
O       4.36155901     3.99303601     3.61391803     1.43645067    -3.19511083    -3.29799253
O       1.45510102     8.49583899     3.77935900    -0.29218464    -0.69849340    -1.36629990
O       1.57600198     3.84647597     3.71591101    -1.42149996    -0.08097487    -0.61581595
O       2.98503600     6.16187701     3.39069699    -1.69860816    -0.53468450    -0.51539633
O       2.93618601     1.55458999     3.32817998     0.17361201    -0.35952392    -0.29296806
O       5.88266700     6.14985601     3.33086900     2.02324348    -1.38932285    -0.14265231
O       3.02331499     7.85338600     1.37101502    -1.13934648    -0.46417068     0.79214766
O       3.04823199     3.10623098     1.20544598    -0.57613070     1.63344584    -0.71880563
O       5.92811201     7.77365503     1.51425599     0.86831045     1.06265147    -1.20772962
O       5.83675199     3.25367701     1.34821102     0.88846328    -0.19266440     0.30151467
