# total energy = -19930.99010235 eV

CRYSTAL
PRIMVEC
        4.80778782     0.00000000     0.00000000
        1.73773510     4.81283253     0.00000000
        0.00000000     0.00000000     8.74384531
PRIMCOORD
24 1
Ti      2.77237213     2.85208003     3.24390426     4.19245188    -2.94113639     1.10494356
Ti      3.77315097     1.96075238     5.49994114    -4.19245188     2.94113639    -1.10494356
Ti      4.85436209     1.96075401     1.12798353    -8.18009655     1.55569205     2.70085488
Ti      1.69116103     2.85207853     7.61586197     8.18009655    -1.55569205    -2.70085488
Ti      1.90350470     0.44566389     1.12801859     4.19252027    -2.93952045    -1.11337781
Ti      4.64201842     4.36716861     7.61582691    -4.19252027     2.93952045     1.11337781
Ti      0.82229350     0.44566211     5.49990609     8.17946818    -1.55417510     2.71642806
Ti      5.72322962     4.36717043     3.24393932    -8.17946818     1.55417510    -2.71642806
O       2.13358131     1.69468010     4.46191733    -2.04288337    -0.64504194    -1.15576581
O       4.41194178     3.11815231     4.28192807     2.04288337     0.64504194     1.15576581
O       1.49411994     1.69469951     0.09002281     2.01742379    -0.67106383    -1.48727009
O       5.05140322     3.11813293     8.65382235    -2.01742379     0.67106383     1.48727009
O       3.54307433     0.71173607     0.08999444     2.04170478     0.64463725    -1.15571490
O       3.00244876     4.10109633     8.65385072    -2.04170478    -0.64463725     1.15571490
O       4.18253576     0.71171665     4.46194571    -2.01923024     0.67158371    -1.48810235
O       2.36298729     4.10111576     4.28189970     2.01923024    -0.67158371     1.48810235
O       1.23166702     2.92743749     2.36193076    -0.42178243    -3.31173817    -3.37897460
O       5.31385608     1.88539491     6.38191464     0.42178243     3.31173817     3.37897460
O       3.25931150     1.88535008     2.01001973     2.13344923    -3.45244904    -4.00366702
O       3.28621160     2.92748232     6.73382552    -2.13344923     3.45244904     4.00366702
O       0.36279957     0.52102126     2.00999180    -0.42194672    -3.31284605     3.37704524
O       6.18272353     4.29181114     6.73385346     0.42194672     3.31284605    -3.37704524
O       2.41734415     0.52106609     6.38194248    -2.13448127     3.45318335    -4.00306564
O       4.12817895     4.29176631     2.36190287     2.13448127    -3.45318335     4.00306564
