# total energy = -19868.88109471 eV

CRYSTAL
PRIMVEC
        7.25899289     0.00000000     0.00000000
        0.00002257     2.57525453     0.00000000
        0.00000000     0.00000000    11.54844543
PRIMCOORD
24 1
Ti      2.63104899     1.52609336     4.28439099    -1.05862667     0.73736155    -0.57376168
Ti      4.62796617     1.04916092     7.26405479     1.05862667    -0.73736155     0.57376168
Ti      6.26042161     1.04916175     1.48978576    -1.05694208    -0.73718312     0.57496239
Ti      0.99859360     1.52609263    10.05866011     1.05694208     0.73718312    -0.57496239
Ti      2.63103800     0.23846615     1.48983208    -1.05862667     0.73736155     0.57376168
Ti      4.62797721     2.33678823    10.05861380     1.05862667    -0.73736155    -0.57376168
Ti      0.99858256     0.23846527     7.26400848     1.05694208     0.73718312     0.57496239
Ti      6.26043265     2.33678911     4.28443730    -1.05694208    -0.73718312    -0.57496239
O       2.29752491     0.90679082     5.89308345     9.59731820    -1.24181886     4.51087593
O       4.96149029     1.66846351     5.65536233    -9.59731820     1.24181886    -4.51087593
O       1.33202964     0.90680127     0.11889774    -9.59200604    -1.24243027     4.51054606
O       5.92698562     1.66845306    11.42954769     9.59200604     1.24243027    -4.51054606
O       4.96147926     0.38083620     0.11886023    -9.59731820     1.24181886     4.51087593
O       2.29753595     2.19441808    11.42958520     9.59731820    -1.24181886    -4.51087593
O       5.92697458     0.38082579     5.89312090     9.59200604     1.24243027     4.51054606
O       1.33204053     2.19442854     5.65532488    -9.59200604    -1.24243027    -4.51054606
O       0.26374955     1.56641578     3.11952327     2.42916168    -0.64208080     6.50408737
O       6.99526566     1.00883850     8.42892245    -2.42916168     0.64208080    -6.50408737
O       3.89325559     1.00881463     2.65473630     2.43435557     0.64265416    -6.50519089
O       3.36575962     1.56643970     8.89370928    -2.43435557    -0.64265416     6.50519089
O       0.26373851     0.27878852     2.65469944     2.42916168    -0.64208080    -6.50408737
O       6.99527670     2.29646581     8.89374614    -2.42916168     0.64208080     6.50408737
O       3.36574863     0.27881239     8.42895927    -2.43435557    -0.64265416    -6.50519089
O       3.89326658     2.29644189     3.11948641     2.43435557     0.64265416     6.50519089
