# total energy = -19517.19170971 eV

CRYSTAL
PRIMVEC
        5.17600016     0.00000000     0.00000000
        0.00000000     5.50899976     0.00000000
        0.00000000     0.00000000     9.26300011
PRIMCOORD
23 1
Ti      1.81976399     3.18308800     3.49387702    -0.31578995     0.40842323     1.77992807
Ti      3.39364000     2.20326398     5.81091300     0.64818795    -0.62190586    -1.66947524
Ti      4.37340703     2.07369800     1.44427701     0.59126961     1.05584370    -1.19219758
Ti      0.90450198     3.41867099     7.70831402    -1.94197988    -0.12409897     1.97184197
Ti      1.93692198     0.27197700     1.40594500     2.76546210     0.38088079    -2.54519818
Ti      3.25093302     5.07517501     7.89362797    -1.20160525     1.72580813     1.34917634
Ti      0.72477100     0.51960099     5.92788499    -0.08699639    -0.22985028    -2.46598478
Ti      4.48610299     4.98319401     3.31022902     0.36355027    -0.03441294     3.03078616
O       1.67088701     1.81850598     4.84724699    -0.14282740     1.18395359    -1.32904820
O       3.52197099     3.50129402     4.55030198    -0.19368076     0.74020622    -1.11637546
O       0.01835398     2.97421200     0.03572798    -0.58240933    -1.12018661    -0.18339403
O       3.48076602     0.99126700     0.27500400    -1.23091455    -1.92890530    -1.68119896
O       1.84108899     4.51950397     9.08197100     1.03989977     1.19940002     0.53032930
O       4.24489199     0.79011498     4.74324700     0.00197615    -0.12428872    -0.21278920
O       0.88816099     4.71654799     4.44658600     0.75588713    -0.50283957     0.79228625
O       0.07799602     3.46617301     2.51677700     1.17562939    -1.29887886     0.22251492
O       5.04272200     1.95992098     6.83058200    -0.13787546     1.73372533     0.29637091
O       2.60692102     2.05844600     2.23328500    -0.23459577    -0.61652300    -0.10308456
O       2.61455499     3.55077300     6.91887702     0.31971423     0.17126664     0.74497536
O       0.29362998     0.57106602     2.04945301    -1.43594262     1.18398085     0.04748084
O       5.02920501     4.98876502     7.35646697     0.59446755    -1.30869277    -0.30383483
O       2.41298402     0.87158800     6.85964299     0.01013118    -1.31550696     1.53030189
O       2.87658102     4.63602198     2.37024401    -0.76155821    -0.55739866     0.50658953
