# total energy = -19884.94189853 eV

CRYSTAL
PRIMVEC
        9.23095440     0.00000000     0.00000000
        0.00002906     3.72654479     0.00000000
        0.00000000     0.00000000    14.28721589
PRIMCOORD
24 1
Ti      3.34579434     2.20834694     5.30045522     0.22550923    -0.15523221     2.43139700
Ti      5.88518938     1.51819772     8.98676080    -0.22550923     0.15523221    -2.43139700
Ti      7.96111399     1.51819899     1.84309571     0.22518347     0.15468894    -2.43222336
Ti      1.26986973     2.20834587    12.44412044    -0.22518347    -0.15468894     2.43222336
Ti      3.34577993     0.34507461     1.84315299     0.22521689    -0.15479178    -2.43135304
Ti      5.88520379     3.38147018    12.44406316    -0.22521689     0.15479178     2.43135304
Ti      1.26985533     0.34507328     8.98670353    -0.22502278    -0.15537542    -2.43204055
Ti      7.96112839     3.38147151     5.30051249     0.22502278     0.15537542     2.43204055
O       2.92166571     1.31217974     7.29065689     1.05740668     0.77550696    -2.31659849
O       6.30931808     2.41436491     6.99655913    -1.05740668    -0.77550696     2.31659849
O       1.69388614     1.31219475     0.14709490    -1.05738379     0.77565018    -2.31718959
O       7.53709771     2.41434990    14.14012073     1.05738379    -0.77565018     2.31718959
O       6.30930368     0.55109252     0.14704856    -1.05735963    -0.77550851    -2.31691011
O       2.92168004     3.17545214    14.14016707     1.05735963     0.77550851     2.31691011
O       7.53708331     0.55107751     7.29070330     1.05869351    -0.77583195    -2.31809924
O       1.69390034     3.17546721     6.99651272    -1.05869351     0.77583195     2.31809924
O       0.33539963     2.26669578     3.85933343    -1.83754549     0.55747117     0.10029569
O       8.89558409     1.45984888    10.42788259     1.83754549    -0.55747117    -0.10029569
O       4.95088898     1.45981424     3.28431995    -1.83671039    -0.55724568    -0.10006686
O       4.28009481     2.26673048    11.00289581     1.83671039     0.55724568     0.10006686
O       0.33538522     0.40342338     3.28427432    -1.83651370     0.55698317    -0.09877951
O       8.89559850     3.32312128    11.00294144     1.83651370    -0.55698317     0.09877951
O       4.28008040     0.40345802    10.42792809     1.83645842     0.55707547    -0.09985603
O       4.95090338     3.32308664     3.85928787    -1.83645842    -0.55707547     0.09985603
