# total energy = -19940.81382669 eV

CRYSTAL
PRIMVEC
        6.50203935     0.00000000     0.00000000
        0.00002453     4.15208150     0.00000000
        0.00000000     0.00000000     9.93042816
PRIMCOORD
24 1
Ti      2.35669089     2.46051963     3.68411804     0.06187516     1.38468278    -0.95204771
Ti      4.14537257     1.69156181     6.24631023    -0.06187516    -1.38468278     0.95204771
Ti      5.60759869     1.69156321     1.28105642     0.06311161    -1.38478125     0.95276711
Ti      0.89446482     2.46051840     8.64937189    -0.06311161     1.38478125    -0.95276711
Ti      2.35667883     0.38447894     1.28109626     0.06187516     1.38468278     0.95204771
Ti      4.14538463     3.76760261     8.64933211    -0.06187516    -1.38468278    -0.95204771
Ti      0.89445271     0.38447743     6.24627039    -0.06311161     1.38478125     0.95276711
Ti      5.60761075     3.76760412     3.68415782     0.06311161    -1.38478125    -0.95276711
O       2.05794503     1.46201844     5.06742150     1.91728879    -0.75242411     1.28858596
O       4.44411849     2.69006296     4.86300677    -1.91728879     0.75242411    -1.28858596
O       1.19312972     1.46203520     0.10223933    -1.91722914    -0.75239840     1.28821624
O       5.30893385     2.69004624     9.82818862     1.91722914     0.75239840    -1.28821624
O       4.44410643     0.61402215     0.10220710    -1.91728879     0.75242411     1.28858596
O       2.05795708     3.53805924     9.82822084     1.91728879    -0.75242411    -1.28858596
O       5.30892174     0.61400544     5.06745367     1.91722914     0.75239840     1.28821624
O       1.19314166     3.53807601     4.86297454    -1.91722914    -0.75239840    -1.28821624
O       0.23624896     2.52553134     2.68245639     0.00849339     0.20703996     1.54263470
O       6.26581455     1.62655005     7.24797182    -0.00849339    -0.20703996    -1.54263470
O       3.48727612     1.62651145     2.28278928     0.01054590    -0.20691552    -1.54308824
O       3.01478734     2.52556999     7.64763877    -0.01054590     0.20691552     1.54308824
O       0.23623685     0.44949054     2.28275758     0.00849339     0.20703996    -1.54263470
O       6.26582660     3.70259085     7.64767047    -0.00849339    -0.20703996     1.54263470
O       3.01477528     0.44952919     7.24800347    -0.01054590     0.20691552    -1.54308824
O       3.48728818     3.70255220     2.68242469     0.01054590    -0.20691552     1.54308824
