# total energy = -19074.98885146 eV

CRYSTAL
PRIMVEC
        5.17600016     0.00000000     0.00000000
        0.00000000     5.50899976     0.00000000
        0.00000000     0.00000000     9.26300011
PRIMCOORD
22 1
Ti      1.98124201     3.42251102     3.28431701    -0.47023155     0.55499031     0.55404131
Ti      3.57609101     2.21043698     6.05365301    -0.78043577     0.91182022    -1.42968713
Ti      4.40407999     2.25689202     1.22045901     0.61285429     0.14714712    -1.04542070
Ti      0.65629002     3.28488498     8.10471302     1.32032058    -0.41401307     0.49823935
Ti      1.83638598     0.53073203     1.27350501    -0.51474224     0.12766869    -2.19494516
Ti      3.19221001     5.02377603     7.95496798     0.09991876    -0.09775132     0.84044971
Ti      0.52340498     0.12086202     6.06630998     0.87162332     1.20959341    -0.99588607
Ti      4.43203701     5.03231002     3.37449898     1.22282123    -0.14946445     1.58320801
O       3.65437902     3.45873801     4.38344499    -1.49056933    -0.50503581     1.12342620
O       0.96197598     1.97569797     0.21710402    -0.61113216     0.11628178    -0.96331584
O       4.33627101     3.70624400     9.07036302    -1.32342648    -0.31507775     0.23156803
O       3.54278898     0.81980399     0.20021998    -0.61460187     0.24218155    -1.10986183
O       1.64057500     4.72914903     9.06204298    -0.58328325     0.33475416     0.46144865
O       4.15932398     0.83886601     4.77237799     0.45690448    -0.96509350    -0.14334317
O       1.01419402     4.89044998     4.42705502     0.08596821    -1.17615106     0.04473078
O       0.22118699     3.58027299     2.35815702     0.35734208    -0.71949829     0.41917070
O       0.12116101     1.96087799     6.63855998     0.17871359     0.20440946     0.99494067
O       2.63534202     2.00640100     2.16507601     0.58202547     0.73856226     1.30312555
O       2.33593697     3.54550498     7.06670502     0.37786052    -0.83099962    -1.07106361
O       0.03182800     0.73918399     2.08363098     0.80977001    -0.40557779     1.03135574
O       2.42212899     0.70537798     6.62082000    -0.30467815     0.18095636     0.48286981
O       2.83031701     4.71465899     2.34752098    -0.28302174     0.81029760    -0.61505078
