# total energy = -19917.95556116 eV

CRYSTAL
PRIMVEC
        6.74271163     0.00000000     0.00000000
        0.00002257     3.45524792     0.00000000
        0.00000000     0.00000000    10.18716581
PRIMCOORD
24 1
Ti      2.44392215     2.04757678     3.77936586    -0.66909359     1.28313599    -0.95007311
Ti      4.29881220     1.40767129     6.40780005     0.66909359    -1.28313599     0.95007311
Ti      5.81516254     1.40767252     1.31417640    -0.66888173    -1.28302158     0.95178161
Ti      0.92757186     2.04757571     8.87298967     0.66888173     1.28302158    -0.95178161
Ti      2.44391091     0.31995287     1.31421725    -0.66909359     1.28313599     0.95007311
Ti      4.29882349     3.13529530     8.87294881     0.66909359    -1.28313599    -0.95007311
Ti      0.92756057     0.31995155     6.40775920     0.66888173     1.28302158     0.95178161
Ti      5.81517378     3.13529663     3.77940671    -0.66888173    -1.28302158    -0.95178161
O       2.13411883     1.21665158     5.19843274     4.75706763    -1.46156265     2.96560045
O       4.60861557     2.23859649     4.98873317    -4.75706763     1.46156265    -2.96560045
O       1.23729248     1.21666549     0.10488257    -4.75726432    -1.46279446     2.96723978
O       5.50544197     2.23858259    10.08228303     4.75726432     1.46279446    -2.96723978
O       4.60860429     0.51097253     0.10484953    -4.75706763     1.46156265     2.96560045
O       2.13413006     2.94427554    10.08231612     4.75706763    -1.46156265    -2.96560045
O       5.50543074     0.51095863     5.19846578     4.75726432     1.46279446     2.96723978
O       1.23730356     2.94428950     4.98870013    -4.75726432    -1.46279446    -2.96723978
O       0.24499213     2.10167769     2.75180762     1.67835403    -0.50775347     1.07398824
O       6.49774222     1.35357044     7.43535829    -1.67835403     0.50775347    -1.07398824
O       3.61635639     1.35353819     2.34180771     1.67949869     0.50793139    -1.07585101
O       3.12637796     2.10170994     7.84535805    -1.67949869    -0.50793139     1.07585101
O       0.24498090     0.37405367     2.34177518     1.67835403    -0.50775347    -1.07398824
O       6.49775350     3.08119440     7.84539058    -1.67835403     0.50775347     1.07398824
O       3.12636673     0.37408593     7.43539077    -1.67949869    -0.50793139    -1.07585101
O       3.61636767     3.08116215     2.75177510     1.67949869     0.50793139     1.07585101
