# total energy = -19072.29645919 eV

CRYSTAL
PRIMVEC
        7.60600008     0.00000000     0.00000000
        0.00000000     7.60600008     0.00000000
       -1.89786986    -1.89786986     4.85670466
PRIMCOORD
22 1
Ti      3.49955203     6.84344699     1.23859598    -0.57938700     0.13547533    -0.05658820
Ti      3.86634102     3.06953698     1.28921802     1.06854830     0.02327775    -0.97739829
Ti     -0.33092502     6.41696902     1.04001300     1.55492201     0.93602896    -0.80196440
Ti      0.28686000     2.64910201     1.21759902    -0.31368113    -0.89058264    -0.66054159
Ti      5.80436724     2.70945123     3.40212584    -0.35079142     1.98785197     0.57820583
Ti      5.60912523    -1.19118376     3.67418782    -4.25063237    -1.73897681     0.22976158
Ti      1.98414322     3.20472224     3.72087083     1.33726519    -1.34234878     0.15128171
Ti      1.50053025    -0.62742980     3.80562079     1.52014268     0.66733804     0.11421719
O       3.61766100     4.91199897     0.79397702    -0.55356926     1.41180124    -0.03855911
O       4.07861699     1.16713900     0.79728998    -1.18775960    -0.62945899    -0.20643549
O       0.04734501     4.30936203     0.55030597     0.33784077     1.17876845    -0.96751805
O      -0.32746398     0.84100399     0.91445702    -0.21461006    -0.66504230    -0.26363305
O       5.96452924     4.55139622     4.10171981    -0.24823959     0.63623977     0.36513278
O      -0.46157279    -0.69642377     3.86991281     4.98934786     2.33761829    -0.44551244
O       1.75599025     5.12372824     4.19340580     0.18817962    -1.36985985    -0.80005869
O       2.13598322     1.26505621     4.12772680    -1.13786141    -1.32409419    -0.66619493
O       4.05046523     3.33022224     3.36315580    -2.00207327    -0.90424009    -0.67650300
O       0.33560220     3.23209521     2.93163382    -3.14883172    -0.52582319     2.09517732
O       5.34035700     6.47831400     1.74670800     1.17478092     0.04382036     0.86105814
O       5.67542701     2.95852200     1.47827602     2.13682406    -0.45724696     1.65840072
O       1.52309997     6.59375999     1.76836802     0.58869645     0.54716849     0.80199191
O       2.14936802     2.57264801     1.71848201    -0.90911105    -0.05771563    -0.29431969
