# total energy = -19070.15796129 eV

CRYSTAL
PRIMVEC
        5.17600016     0.00000000     0.00000000
        0.00000000     5.50899976     0.00000000
        0.00000000     0.00000000     9.26300011
PRIMCOORD
22 1
Ti      1.63173202     3.46961599     3.32904000     2.31015145    -0.00254951    -0.08874937
Ti      3.64232701     2.13498398     5.90866601     0.36806898     0.46479392     1.53638743
Ti      4.17699299     2.19824701     1.63717900     1.49628335    -0.59976506     0.56478416
Ti      1.15674199     2.69972501     7.80734001    -2.57571565     2.25710185     0.17826648
Ti      1.78063398     0.61441400     1.06750202    -0.09118858     0.00258807     1.16129651
Ti      3.33318097     0.01507600     8.00993801     1.59949081    -1.85057533    -3.17775279
Ti      0.86096101     0.02901003     6.15088801    -0.66068840    -1.89086247     0.10134161
Ti      4.35336999     5.10397400     3.48802602    -0.59117191     1.39401743     0.53452869
O       3.30174800     2.58410899     4.24720899    -0.37334309     1.11176676    -0.84739889
O       0.75066799     2.08148601     0.22522202    -0.34452641     0.18102424    -0.60894904
O       4.86115001     3.80368199     7.23746501    -0.17684568     0.10901353    -0.11613189
O       3.53674901     1.09858298     0.28294298    -0.02138722    -0.37186984    -0.99202273
O       1.99408699     4.78438698     8.93906902    -1.42691213    -0.17581647     2.60638018
O       3.87365198     0.25141502     5.75008598     0.12368528    -1.79533875    -4.54123784
O       1.23834901     4.96903698     4.33481000    -1.71930709     0.47242058     1.96522009
O       5.14027001     3.72264098     2.54942301    -0.48835680    -1.83854899    -1.22936032
O       4.92537901     1.22444302     7.17623502     2.40280812     2.01564201     3.07813999
O       2.36660401     2.46630402     1.87863602     0.26283086    -0.69801363     0.56354540
O       2.18900800     4.16773102     6.74405798    -0.20778609    -1.41194496    -0.30436628
O       0.16093698     0.72459802     2.33054699    -0.41877193     0.91502047    -0.04769861
O       2.17872101     1.24439401     7.12813302     0.45589096     1.06204701    -0.90925837
O       2.74220402     4.87261797     2.39130902     0.07679117     0.64984914     0.57303534
