# total energy = -19958.09552543 eV

CRYSTAL
PRIMVEC
        7.60600008     0.00000000     0.00000000
        0.00000000     7.60600008     0.00000000
       -1.89786986    -1.89786986     4.85670466
PRIMCOORD
24 1
Ti      3.76101702     6.80030999     1.37074302     0.52947827     0.19049876    -0.32403574
Ti      3.65502197     3.03526000     1.15822702     0.94584827    -0.56115761     3.60261386
Ti      0.04757801     6.46718598     1.32818902    -1.03750196    -0.97487449    -1.49662454
Ti      0.17375498     2.68539298     1.17498199    -2.00919060     0.93858259    -0.91401363
Ti      5.85080921     2.75201222     3.49612079    -1.11687914    -0.33089390     0.49736929
Ti      5.59073823    -1.11091979     3.65122682     0.99698290    -0.09594975    -0.15508103
Ti      2.02725021     2.93994121     3.78685384    -0.38418312     2.95740968    -2.41806197
Ti      1.73719821    -0.81770675     3.63137384     0.46386729    -2.21811363     1.48941927
O       3.44107699     5.01496602     0.75573899     1.47355196    -0.62172589    -0.15579014
O       3.62446601     0.95105302     0.72551201     0.24401604     0.10832293     1.31429160
O      -0.01146097     4.51338901     0.80440800     0.24661774     2.85292181    -0.70959363
O       0.33113700     0.71179198     0.62358702    -1.06877816     0.32818061     1.85269572
O       5.69491121     4.60704423     3.78210982    -0.30844713     0.45167717     1.58017205
O       5.96496523     0.78830323     3.98616781    -0.85739149     0.35825842     0.70096423
O       1.83882623     4.92351223     3.59330684     0.85922571    -1.80911036     2.52378320
O       1.72498221     1.06419323     4.25197482     0.54859957     0.46585758    -2.56714899
O       3.88983422     2.79800820     3.20345180    -2.44964001    -0.37285586     0.06150672
O       3.76667520    -0.79992375     3.21885583    -0.11724106     0.48154543     0.53798631
O      -0.00484779     2.86789622     3.20719181     2.68660660    -0.77609395    -0.23203392
O      -0.03887378    -0.97038577     3.21280479    -0.62925691     0.16291853    -0.16301571
O       5.70740498     6.41561798     1.72597701    -0.89448404     0.82878718    -1.83337953
O       5.79724499     2.88862901     1.55163797    -1.02429985    -0.93397517    -0.40627687
O       1.82723100     6.69571102     1.82386601     1.14682736     0.46118872    -2.97706757
O       1.86880697     3.22749999     1.69077698     1.75567176    -1.89139855     0.19132126
