# total energy = -19517.22671186 eV

CRYSTAL
PRIMVEC
        5.93400000     0.00000000     0.00000000
        0.00000000     9.29699974     0.00000000
        0.00000000     0.00000000     4.64899994
PRIMCOORD
23 1
Ti      4.44833397     7.24031902     2.11057298    -0.24015809    -1.33553381     0.87095355
Ti      4.41331101     2.28197402     2.32851002     2.17823272    -0.74178282    -0.14646706
Ti      1.31667402     6.96907499     2.20226500    -0.26442340     0.58631201     0.95841583
Ti      1.44698598     2.38816301     2.45997797    -1.58394026    -1.58501987    -0.84968538
Ti      2.90173303     4.47562798     0.24607499     1.44838702     0.11575316    -0.28061365
Ti      3.08349499     0.06798599     4.56413097    -1.49792731    -0.45792393     0.56039091
Ti      5.82310498     4.58123700     4.64335098     0.28107747     0.87547406     0.37813382
Ti      0.08023999     0.03339997     4.63843101     1.83970187     1.37152644    -1.00901104
O       4.53721300     5.55703699     1.05988398    -0.77630709    -0.70690734    -1.14226443
O       4.54279301     0.75835900     0.96831197    -1.26344776     0.59975786    -0.33228204
O       1.61322002     5.45287501     0.99091202    -0.71715396     1.34400971     0.46709840
O       1.57818002     0.88763102     0.97107502    -0.08726764    -0.16743364    -0.75582593
O       4.50293200     8.53238101     3.42812400    -0.16326614    -0.06894878     2.54601837
O       4.59041198     3.66139401     3.74544403    -1.67646864     0.49235333    -0.21960314
O       1.51153602     8.39661402     3.73134002     0.25970646    -0.61863747    -0.52608055
O       1.49171601     3.68067802     3.87152701     0.64968304     0.15556003    -0.76133812
O       3.02033800     1.43065599     3.29701499    -0.70408144     0.25938970     0.05917859
O       0.10823802     6.00253602     3.22341702     0.16991913     0.33994881     0.15787145
O       5.88429999     1.43241201     3.21795702     0.91642301    -0.29755311     0.79511523
O       2.95515199     7.89936198     1.43706200    -0.95340834    -0.67783149    -0.72060489
O       2.97719201     3.20791101     1.53346201    -0.38564402     0.27887738    -0.41848139
O       5.88417601     7.98202201     1.30929099     1.81709749    -1.23083048    -0.04871754
O       5.89326002     2.99025702     1.30564501     0.75326640     1.46944102     0.41779825
