# total energy = -19517.66432254 eV

CRYSTAL
PRIMVEC
        7.60600008     0.00000000     0.00000000
        0.00000000     7.60600008     0.00000000
       -1.89786986    -1.89786986     4.85670466
PRIMCOORD
23 1
Ti      3.77459698     6.59913998     1.13998099     0.58483260     0.02124863     1.41266924
Ti      3.71235801     2.76093700     1.25420797     0.80006641     0.01553410     0.72855398
Ti      0.06761298     6.76841600     1.16320102    -0.88169536     0.64134958    -1.24390351
Ti     -0.02951502     2.97700902     1.14744202    -0.69058545    -0.94582256     1.63376029
Ti      5.63225022     2.86095420     3.72946282    -1.29532457     1.74984590    -0.95679114
Ti      5.74313625    -0.83172577     3.52015681    -1.09645738    -1.37390188     0.86191149
Ti      1.99139925     2.73186522     3.79196379    -0.08147289    -0.15664529    -0.87694062
Ti      1.90047220    -1.02759676     3.55507082     1.72761279     0.10193091     0.91760340
O       4.05428399     4.66584101     0.82363899    -1.25018086    -0.59200906     0.98879831
O       3.51930198     0.91076802     0.63432001    -0.19209619     0.26300544     1.04267579
O      -0.30742801     4.84976403     0.88484098     0.82056968    -0.49020928    -0.57312405
O       0.16720800     0.96306100     0.70023300     0.01130926     1.12127779     0.60135271
O       5.78786522     4.87159121     4.03541882     0.47722701    -1.71087721    -0.83337069
O       5.43897024     1.01588924     4.15775782     0.76386141    -0.37828552    -1.34509806
O       2.11099621     4.61287624     4.18334280    -1.38451488     1.27944594    -1.41423248
O       2.29059823     0.89169023     4.07233983    -1.58401894    -1.22229184     0.15365252
O       3.71362021     2.81574220     3.33733179     2.36747601     0.30408988    -1.90157369
O       3.77802023    -1.26196275     3.24379981    -0.00947195     1.17423970    -0.63643054
O       0.05049822    -0.75600580     3.05463683    -0.58671902     0.08378843     1.66757185
O       5.62426102     6.93240200     1.63621399     0.23972306    -0.01039009    -0.22824797
O       5.70338302     2.73594301     1.74614401     0.40458277    -0.16722230     0.53253094
O       1.86551602     6.37960900     1.55862200     0.98893277     0.17746660    -0.03399462
O       1.78144600     2.95954501     1.76065500    -0.13365679     0.11443213    -0.49737289
