# total energy = -4985.45862834 eV

CRYSTAL
PRIMVEC
        3.23864686     0.00000000     0.00000000
        2.17348099     4.58544094     0.00000000
       -0.00001420    -0.00006819     5.21470076
PRIMCOORD
6 1
Ti      2.70605671     2.29268640     2.60735027     0.00000000     0.00000000     0.00000000
Ti      0.00000000     0.00000000     0.00000000     0.00000000     0.00000000     0.00000000
O       2.04290002     0.89362167     1.01626834    -0.49079138     0.65461108     0.19148066
O       3.36921335     3.69175114     4.19843220     0.49079138    -0.65461108    -0.19148066
O       0.66315076     1.39903721     3.62361969     0.49055535    -0.65431463     0.19161873
O       1.51031590     3.18633546     1.59108085    -0.49055535     0.65431463    -0.19161873
