# total energy = -19898.03026467 eV

CRYSTAL
PRIMVEC
        8.47788247     0.00000000     0.00000000
        0.00002983     4.85855507     0.00000000
        0.00000000     0.00000000    12.82632758
PRIMCOORD
24 1
Ti      3.07284242     2.87917539     4.75847622     0.45077729    -0.53934025     2.57958644
Ti      5.40507008     1.97938008     8.06785189    -0.45077729     0.53934025    -2.57958644
Ti      7.31163836     1.97938180     1.65463662     0.45437555     0.53931146    -2.58088897
Ti      1.16627414     2.87917380    11.17169162    -0.45437555    -0.53931146     2.58088897
Ti      3.07282764     0.44989792     1.65468803     0.45145066    -0.53646782    -2.58058378
Ti      5.40508486     4.40865768    11.17164021    -0.45145066     0.53646782     2.58058378
Ti      1.16625935     0.44989600     8.06780048    -0.45420945    -0.53575356    -2.58173897
Ti      7.31165315     4.40865953     4.75852763     0.45420945     0.53575356     2.58173897
O       2.68331392     1.71077991     6.54517700     0.75234826     1.43126784    -2.22731510
O       5.79459858     3.14777549     6.28115112    -0.75234826    -1.43126784     2.22731510
O       1.55569803     1.71079949     0.13205421    -0.75195745     1.43107732    -2.22717446
O       6.92221453     3.14775598    12.69427350     0.75195745    -1.43107732     2.22717446
O       5.79458380     0.71849796     0.13201261    -0.75204513    -1.43034970    -2.22602595
O       2.68332870     4.14005751    12.69431511     0.75204513     1.43034970     2.22602595
O       6.92219975     0.71847838     6.54521860     0.75152808    -1.43123159    -2.22750973
O       1.55571262     4.14007709     6.28110944    -0.75152808     1.43123159     2.22750973
O       0.30803921     2.95524864     3.46471119    -2.31777708     0.75147305     0.16458512
O       8.16987329     1.90330682     9.36161693     2.31777708    -0.75147305    -0.16458512
O       4.54699091     1.90326139     2.94849361    -2.31891583    -0.75147228    -0.16349831
O       3.93092159     2.95529407     9.87783424     2.31891583     0.75147228     0.16349831
O       0.30802443     0.52597104     2.94845267    -2.31798766     0.75172245    -0.16358419
O       8.16988807     4.33258442     9.87787518     2.31798766    -0.75172245     0.16358419
O       3.93090681     0.52601647     9.36165780     2.31840777     0.75158413    -0.16525515
O       4.54700569     4.33253899     3.46467025    -2.31840777    -0.75158413     0.16525515
