# total energy = -19947.76696371 eV

CRYSTAL
PRIMVEC
        6.17984860     0.00000000     0.00000000
        0.00002432     4.38481841     0.00000000
        0.00000000     0.00000000     9.60118937
PRIMCOORD
24 1
Ti      2.23991239     2.59843931     3.56197278     0.05244487     1.28869498    -1.75234835
Ti      3.93996063     1.78637910     6.03921670    -0.05244487    -1.28869498     1.75234835
Ti      5.32973016     1.78638062     1.23858358     0.05425647    -1.28869832     1.75781040
Ti      0.85014286     2.59843799     8.36260595    -0.05425647     1.28869832    -1.75781040
Ti      2.23990023     0.40603021     1.23862207     0.05291641     1.28791953     1.75661973
Ti      3.93997279     3.97878835     8.36256746    -0.05291641    -1.28791953    -1.75661973
Ti      0.85013070     0.40602858     6.03917816    -0.05359467     1.28916163     1.75428465
Ti      5.32974232     3.97878998     3.56201127     0.05359467    -1.28916163    -1.75428465
O       1.95596971     1.54396912     4.89941346     1.37756673    -0.89099685     1.39499239
O       4.22390331     2.84084934     4.70177602    -1.37756673     0.89099685    -1.39499239
O       1.13400797     1.54398679     0.09884963    -1.37756776    -0.89144448     1.39498236
O       5.04586516     2.84083167     9.50233953     1.37756776     0.89144448    -1.39498236
O       4.22389120     0.64844008     0.09881846    -1.37743586     0.89120331     1.39507389
O       1.95598182     3.73637832     9.50237070     1.37743586    -0.89120331    -1.39507389
O       5.04585299     0.64842246     4.89944458     1.37812980     0.89126090     1.39508803
O       1.13401997     3.73639605     4.70174485    -1.37812980    -0.89126090    -1.39508803
O       0.22454311     2.66709512     2.59352080     0.25267217    -0.10207900     1.13317994
O       5.95532991     1.71772334     7.00766868    -0.25267217     0.10207900    -1.13317994
O       3.31447432     1.71768246     2.20710448     0.25340725     0.10236800    -1.13256005
O       2.86539870     2.66713600     7.39408484    -0.25340725    -0.10236800     1.13256005
O       0.22453095     0.47468586     2.20707379     0.25285241    -0.10204687    -1.13241273
O       5.95534207     3.91013255     7.39411548    -0.25285241     0.10204687     1.13241273
O       2.86538660     0.47472675     7.00769927    -0.25379574    -0.10267113    -1.13308276
O       3.31448643     3.91009171     2.59349015     0.25379574     0.10267113     1.13308276
