# total energy = -19073.90897999 eV

CRYSTAL
PRIMVEC
        5.93400000     0.00000000     0.00000000
        0.00000000     9.29699974     0.00000000
        0.00000000     0.00000000     4.64899994
PRIMCOORD
22 1
Ti      4.39884299     7.07954900     2.18158401    -1.07471124    -0.23811638    -0.02503715
Ti      4.47407199     2.29628302     2.19383097     0.29924875    -0.92558720     0.77138548
Ti      1.39511200     6.97955101     2.66330502     1.06971661     0.04187146    -0.37806929
Ti      1.64295201     2.45739300     2.14355199    -0.31468746     0.02787283     0.12773348
Ti      3.06937299     4.61435402     4.42896402    -0.65322937     0.92433018     0.58777034
Ti      2.92109398     9.24998901     4.64797101     0.41541561    -0.09958529    -0.01901409
Ti      5.85075502     4.64336902     4.55878300     0.60302702    -0.18571831     0.43321125
Ti      5.91560501     9.26438200     0.26579801    -0.64174424    -0.85287714     0.52028451
O       4.47654198     5.61574402     0.94414498     0.21499418    -0.20664761    -0.98430119
O       4.37100102     0.69292602     1.12501702     0.64634549     1.38277502    -0.16735420
O       1.46898800     0.88113701     1.02153900     0.13764663     0.89507565    -0.59771434
O       4.45923799     8.27800000     4.04431302    -0.19149532     0.11573105    -1.26826601
O       4.47170498     3.94340400     3.58443200     0.74310051    -2.49234580    -1.33245568
O       1.40332298     8.07309902     4.07296802     0.17445636     1.42269706     0.41294632
O       1.59413498     3.90808200     3.62315698    -1.17031749    -0.55294371    -0.13279933
O       3.02056200     5.97190698     3.00606900    -0.94987410     0.27756432     1.10930416
O       2.94278803     1.46859599     3.22324599     0.29168276    -0.23236045     0.84168718
O       5.76968602     6.03888299     3.19277300     0.94038776    -0.06151007     0.08206527
O       2.78832701     8.04266302     1.60373098     0.48602918    -1.00180244     0.31346850
O       3.23943500     3.05242800     1.18839700    -1.73662811     1.82267550    -0.75454604
O       0.03608200     8.04742900     1.70611201     0.24566488    -0.42502948    -0.23008579
O       0.00700599     3.09218000     1.17684099     0.46497158     0.36393079     0.68978635
