# total energy = -4987.66626047 eV

CRYSTAL
PRIMVEC
        3.50825581     0.00000000     0.00000000
        0.00000000     4.49747261     0.00000000
        0.00000000    -0.00006604     5.04766855
PRIMCOORD
6 1
Ti      1.75412791     2.24870322     2.52383439     0.00000000     0.00000000     0.00000000
Ti      0.00000000     0.00000000     0.00000000     0.00000000     0.00000000     0.00000000
O       1.75412791     0.87647829     0.98371632     0.00000000     0.16776866     0.12297925
O       1.75412791     3.62092816     4.06395246     0.00000000    -0.16776866    -0.12297925
O       0.00000000     1.37219822     3.50755161     0.00000000    -0.16732848     0.12278770
O       0.00000000     3.12520823     1.54011716     0.00000000     0.16732848    -0.12278770
