# total energy = -19961.20060600 eV

CRYSTAL
PRIMVEC
        7.60600008     0.00000000     0.00000000
        0.00000000     7.60600008     0.00000000
       -1.89786986    -1.89786986     4.85670466
PRIMCOORD
24 1
Ti      3.69077800     6.70684702     1.29512200     1.18069575    -0.25975299    -0.63181824
Ti      3.77389000     2.97758302     1.26576298     0.35558447    -0.13361642    -1.31760961
Ti      0.09735401     6.54857000     1.17376398    -1.63506924     1.72922333     0.13375758
Ti      0.02564700     2.88757198     1.10977000    -0.01178286    -1.61599550     1.49590411
Ti      5.69158422     2.81727321     3.58885783     0.22197602    -0.24040183    -1.05801166
Ti      5.72928625    -1.06037675     3.59131782     0.34088264     0.26620441     0.37169629
Ti      1.86061722     2.99214523     3.61785780     0.02481141    -1.52026327     0.75842172
Ti      1.85659425    -0.94481375     3.66224482    -0.52085350     0.98856176     1.61357275
O       3.75399802     4.81546000     0.82745901     0.26751207     1.01307107     0.25205202
O       3.68174400     0.99847301     0.78013501     0.26741745    -0.78056998     0.64907780
O       0.11180499     4.68748701     0.69024399    -0.20564925     0.34352008     0.59742458
O       0.18378199     0.83821100     0.77433200    -0.39139481     0.03758260    -0.14323441
O       5.85226323     4.67378724     4.01129881    -0.37510789     0.11359935     0.09486011
O       5.69218124     0.88827122     4.11156584    -0.23685063    -0.21596580    -1.45769031
O       1.76715620     4.82283621     4.13574183     0.14696097    -0.34287962    -0.10172136
O       1.86244722     1.09876523     4.19459581     0.32012457    -1.45899000    -1.16375191
O       3.81336223     2.91597022     3.26565484     0.42104992    -0.01457096     0.45886367
O       3.71334625    -1.05447076     3.23361881     1.17420062     0.56476282     0.07074213
O       0.08718322     2.73095821     3.12468979    -1.66534399     0.33930887     0.26617021
O      -0.02910877    -0.99798379     3.23201980     0.74507512     0.38165341    -0.13508478
O       5.79533598     6.59320002     1.64689999    -1.36525603     0.07092314    -0.15746213
O       5.67335200     2.94536401     1.61763802     1.32380083    -0.43144438     0.13469037
O       1.86184200     6.35461802     1.70669299     0.57954024     0.81402648    -0.23358995
O       1.95358397     2.86780001     1.68146002    -0.96232390     0.35201346    -0.49725951
