# total energy = -19903.67743972 eV

CRYSTAL
PRIMVEC
        6.69908464     0.00000000     0.00000000
        2.09192152     6.81605829     0.00000000
        0.00000000     0.00000000    12.13015619
PRIMCOORD
24 1
Ti      3.66776669     4.03918986     4.50020143    -0.34137603    -1.83116349     0.56713286
Ti      5.12323935     2.77686858     7.62995483     0.34137603     1.83116349    -0.56713286
Ti      6.62977920     2.77687092     1.56482823     0.21892412    -0.65930103    -0.15659361
Ti      2.16122695     4.03918778    10.56532816    -0.21892412     0.65930103     0.15659361
Ti      2.62180609     0.63116083     1.56487687    -0.34137603    -1.83116349    -0.56713286
Ti      6.16919998     6.18489781    10.56527953     0.34137603     1.83116349     0.56713286
Ti      1.11526621     0.63115829     7.62990620    -0.21892412     0.65930103    -0.15659361
Ti      7.67573986     6.18490036     4.50025007     0.21892412    -0.65930103     0.15659361
O       2.85690368     2.40005004     6.18992586     1.78365797     1.98285940    -0.63732966
O       5.93410237     4.41600847     5.94023040    -1.78365797    -1.98285940     0.63732966
O       1.96588846     2.40007754     0.12488678    -0.63174034    -0.11827567     1.12163389
O       6.82511767     4.41598103    12.00526914     0.63174034     0.11827567    -1.12163389
O       4.88814174     1.00797924     0.12484743    -1.78365797    -1.98285940    -0.63732966
O       3.90286431     5.80807927    12.00530850     1.78365797     1.98285940     0.63732966
O       5.77915703     1.00795179     6.18996521     0.63174034     0.11827567     1.12163389
O       3.01184896     5.80810679     5.94019105    -0.63174034    -0.11827567    -1.12163389
O       1.51581850     4.14591309     3.27665781     0.55178208     1.96241270     1.99518014
O       7.27518755     2.67014542     8.85349845    -0.55178208    -1.96241270    -1.99518014
O       4.41242559     2.67008187     2.78845889     0.56529195     1.83923342     1.14175895
O       4.37858046     4.14597664     9.34169716    -0.56529195    -1.83923342    -1.14175895
O       0.46985779     0.73788387     2.78842015     0.55178208     1.96241270    -1.99518014
O       8.32114819     6.07817465     9.34173591    -0.55178208    -1.96241270     1.99518014
O       3.33261983     0.73794741     8.85353713    -0.56529195    -1.83923342     1.14175895
O       5.45838623     6.07811110     3.27661907     0.56529195     1.83923342    -1.14175895
