# total energy = -19901.21675847 eV

CRYSTAL
PRIMVEC
        8.36789768     0.00000000     0.00000000
        0.00002635     3.37812800     0.00000000
        0.00000000     0.00000000    12.95141928
PRIMCOORD
24 1
Ti      3.03297617     2.00187548     4.80488420    -0.00743563     0.02141550     2.19789241
Ti      5.33494810     1.37625240     8.14653520     0.00743563    -0.02141550    -2.19789241
Ti      7.21678219     1.37625355     1.67077375    -0.00760455    -0.02166309    -2.19717533
Ti      1.15114207     2.00187451    11.28064576     0.00760455     0.02166309     2.19717533
Ti      3.03296311     0.31281154     1.67082568    -0.00743563     0.02141550    -2.19789241
Ti      5.33496116     3.06531646    11.28059384     0.00743563    -0.02141550     2.19789241
Ti      1.15112902     0.31281033     8.14648328     0.00760455     0.02166309    -2.19717533
Ti      7.21679525     3.06531767     4.80493612    -0.00760455    -0.02166309     2.19717533
O       2.64850184     1.18949627     6.60901011     2.58740620     0.44280506    -1.45993128
O       5.71942249     2.18863161     6.34240929    -2.58740620    -0.44280506     1.45993128
O       1.53551467     1.18950988     0.13334212    -2.58658602     0.44301821    -1.46152794
O       6.83240972     2.18861800    12.81807692     2.58658602    -0.44301821     1.46152794
O       5.71940943     0.49956761     0.13330011    -2.58740620    -0.44280506    -1.45993128
O       2.64851484     2.87856027    12.81811893     2.58740620     0.44280506     1.45993128
O       6.83239666     0.49955400     6.60905218     2.58658602    -0.44301821    -1.46152794
O       1.53552755     2.87857394     6.34236722    -2.58658602     0.44301821     1.46152794
O       0.30404112     2.05476893     3.49850144    -1.30090515     0.37045599     0.54350878
O       8.06388314     1.32335895     9.45291796     1.30090515    -0.37045599    -0.54350878
O       4.48800099     1.32332755     2.97724938    -1.30177752    -0.37051821    -0.54342368
O       3.87992334     2.05480039     9.97416978     1.30177752     0.37051821     0.54342368
O       0.30402807     0.36570494     2.97720802    -1.30090515     0.37045599    -0.54350878
O       8.06389620     3.01242295     9.97421114     1.30090515    -0.37045599     0.54350878
O       3.87991028     0.36573634     9.45295920     1.30177752     0.37051821    -0.54342368
O       4.48801404     3.01239155     3.49846014    -1.30177752    -0.37051821     0.54342368
