# total energy = -4988.69081171 eV

CRYSTAL
PRIMVEC
        3.58499899     0.00000000     0.00000000
        0.53473405     3.54489454     0.00000000
       -2.05989883    -1.77247507     4.58825215
PRIMCOORD
6 1
Ti      0.40092017     2.65880640     1.14706279     0.00149253    -0.00173652    -0.00062349
Ti      1.65891442    -0.88638661     3.44118887    -0.00149253     0.00173652     0.00062349
O       0.13372122     0.88621833     0.74738866     0.00019592     0.00125161     0.87832773
O       1.92611321     0.88620132     3.84086299    -0.00019592    -0.00125161    -0.87832773
O      -0.13369929    -0.88619946     3.04151474     0.00126524     0.00020569     0.87815984
O       2.19353367     2.65861912     1.54673692    -0.00126524    -0.00020569    -0.87815984
