# total energy = -4982.81031364 eV

CRYSTAL
PRIMVEC
        3.64472934     0.00000000     0.00000000
        0.00000000     2.74961794     0.00000000
        0.00000000    -0.00007270     4.82071903
PRIMCOORD
6 1
Ti      1.82236462     1.37477248     2.41035956     0.00000000     0.00000000     0.00000000
Ti      0.00000000     0.00000000     0.00000000     0.00000000     0.00000000     0.00000000
O       1.82236462     0.53584582     0.93948716    -0.00000000    -3.07971453    -2.86659571
O       1.82236462     2.21369914     3.88123196    -0.00000000     3.07971453     2.86659571
O       0.00000000     0.83889776     3.34984771     0.00000000     3.07917897    -2.86361709
O       0.00000000     1.91064720     1.47087141     0.00000000    -3.07917897     2.86361709
