# total energy = -4989.21802095 eV

CRYSTAL
PRIMVEC
        3.74955210     0.00000000     0.00000000
        1.10010523     3.58453755     0.00000000
       -2.42486251    -1.79229379     4.84124983
PRIMCOORD
6 1
Ti      0.82496418     2.68854058     1.21031217     0.00031110    -0.00031110     0.00000000
Ti      1.59983041    -0.89629699     3.63093693    -0.00031110     0.00031110     0.00000000
O       0.27506553     0.89612942     0.78859990    -0.00016429     0.00012264    -0.74119224
O       2.14972890     0.89611409     4.05264920     0.00016429    -0.00012264     0.74119224
O      -0.27503665    -0.89610807     3.20922466     0.00012264    -0.00016429    -0.74119224
O       2.69983106     2.68835148     1.63202450    -0.00012264     0.00016429     0.74119224
