# total energy = -19517.38921750 eV

CRYSTAL
PRIMVEC
        5.93400000     0.00000000     0.00000000
        0.00000000     9.29699974     0.00000000
        0.00000000     0.00000000     4.64899994
PRIMCOORD
23 1
Ti      4.51677998     6.88547800     2.25669803     1.03137939     0.40230452     0.29404612
Ti      4.44957701     2.26506501     2.38804702    -0.88005551    -0.44572352    -0.09511594
Ti      1.57618301     7.08140699     2.28623098    -0.96868379     0.08334902    -0.50847595
Ti      1.37316099     2.40348402     2.29491701     0.91171943    -0.64879447    -0.10897265
Ti      2.91583502     4.49940799     0.09514099     0.43474234    -0.56025361     0.71951423
Ti      2.97431201     9.28013698     4.48526801     0.18333386     0.72571033     0.69534637
Ti      5.93394100     4.67401003     0.00931701     0.40659440     0.28184032    -0.56548221
Ti      0.03402800     0.06808098     0.08350899    -0.74877211     0.21897682     0.39555665
O       4.54140202     5.62182400     0.74393701    -1.97448943     0.69059342     1.44853229
O       4.47368299     0.96765400     0.97229700    -0.17687525    -0.34327248    -0.48941147
O       1.52088500     5.48113800     0.99763501     0.59879935     0.70266090    -0.31863205
O       1.49299000     0.88097201     0.88748200    -0.57857067     0.71959162     0.98658227
O       4.40783699     8.41069199     3.75915300     0.67074938    -0.58743970    -0.87740368
O       4.46028100     3.84224298     3.81050700    -0.76300034    -1.15807029    -1.08901737
O       1.42235399     8.53954400     3.75243102     0.35104390    -2.26526742    -1.58911666
O       1.43711402     3.61205098     3.83094801     0.73325293     1.14431925     0.11092412
O       2.77955600     1.48104700     3.28421599     1.68589302    -0.50118712     0.02585888
O       0.11220500     6.01887098     3.14411298    -0.25356512     0.06806330     0.66870201
O       0.02728898     1.42758099     3.17826597    -0.67689381    -0.52798034     0.99470413
O       3.03052302     7.89655798     1.33738199    -0.72533650    -0.92710286     1.14228577
O       2.97384999     3.17789201     1.51976103    -0.09835605     1.32173932    -1.17147011
O       5.87952300     7.75954002     1.37792602     0.66335335     1.48241404    -0.54599504
O       5.81945900     3.28621401     1.48299702     0.17373722     0.12352818    -0.12295945
