# total energy = -19955.11177204 eV

CRYSTAL
PRIMVEC
        5.93400000     0.00000000     0.00000000
        0.00000000     9.29699974     0.00000000
        0.00000000     0.00000000     4.64899994
PRIMCOORD
24 1
Ti      4.39847701     6.61816898     2.10220901     1.01059587     2.98045269     2.17849934
Ti      4.43759702     2.53238202     2.29355501    -0.40438840    -6.39327021     0.35255802
Ti      1.44425002     6.82990201     2.01580897    -1.03970617     1.34483452     0.48594536
Ti      1.49093399     2.56496700     2.31716102     1.13809409    -4.82593388     0.57924533
Ti      3.02244502     4.68940601     4.45679801    -1.69002016    -3.80692176     0.09321101
Ti      2.96166103     9.08038998     0.40654799     2.58620729     4.64425633    -2.93057352
Ti      5.89546399     4.70513401     4.61300002     1.85061158    -3.59959744    -0.33072832
Ti      0.11476500     9.27210201     0.28139799    -2.43420311     3.61586662    -1.53081816
O       4.43391199     5.81630299     0.51178600    -0.50385593     0.02130880     0.01739326
O       4.32801298     0.91650198     1.03995099     1.26437619     2.01006066     1.26462353
O       1.53145198     5.69056900     0.55665002    -0.14057435     1.03304598     0.99259043
O       1.57747601     0.85111398     1.16098298    -1.04088528     1.61982028    -0.06178415
O       4.48876100     8.51467701     4.14392301    -0.16001935    -1.87935318    -2.09796516
O       4.51354300     3.69800498     3.73608600    -0.17180529     2.31565592     2.05224116
O       1.50808700     8.46503198     4.20306101    -0.48072294    -3.24346532    -3.58789095
O       1.42987302     3.59029502     3.86323502     0.22215548     3.42318550     1.65849945
O       2.87527602     5.77096197     2.84167998     0.31823815     0.17537038     0.46000909
O       2.83039199     1.63224299     3.23634402     1.28405413     0.72446232    -0.49763129
O       5.92134298     5.80265699     3.00628501    -0.11588300     1.34999755    -1.29789541
O       0.10857098     1.58965402     3.10680598    -0.98490720    -0.54682988     1.06991715
O       2.90529301     8.00794201     1.78821503     0.46583547    -3.88920789     2.88841796
O       3.13669302     3.42607000     1.38602899    -1.57116650     2.30291636    -1.88031349
O       5.82184999     7.89413302     1.45840599     0.43065274    -3.07359787     3.20924650
O       5.89384000     3.28804099     1.45378500     0.16731563     3.69694278    -3.08679715
