# total energy = -19074.56042326 eV

CRYSTAL
PRIMVEC
        5.17600016     0.00000000     0.00000000
        0.00000000     5.50899976     0.00000000
        0.00000000     0.00000000     9.26300011
PRIMCOORD
22 1
Ti      1.82521298     3.35899302     3.28497399     0.99006920     1.39574392     0.20733178
Ti      3.70077601     2.37860798     5.93076800     0.45253901    -0.48741038    -0.88802491
Ti      4.31741600     2.38886401     1.21650600    -0.58607573    -0.74856925    -1.44769977
Ti      0.79549898     3.18318600     8.12087198    -0.25260121     0.59668127     0.60975791
Ti      1.74738900     0.61503398     1.27376801     1.45194620    -1.00496772    -1.77169719
Ti      3.18022499     4.94077500     7.87520599     0.46054388     1.40515262     2.55268524
Ti      0.74002999     0.08144101     6.04910002    -1.28395155     1.81450119    -0.61333252
Ti      4.49730298     5.04190500     3.39828697    -1.11761011     0.54176403     1.12195193
O       3.51204998     3.52819703     4.40432701    -0.35435831    -0.72435356     1.30675133
O       0.80128501     1.97864300     0.35402403     0.40003603     0.48434614    -1.67125753
O       4.29881801     3.64605702     9.02235400    -0.30316506    -0.05406981     0.26447200
O       3.38261999     0.82025998     0.18816802    -0.41111492     0.61173509    -0.44493779
O       1.57419299     4.69336902     8.97840001    -0.07075576     0.46018136     0.34494936
O       4.24966602     0.79844200     4.97678800     0.72441707    -1.17768833    -1.33565362
O       1.04009699     4.81968501     4.36828501    -0.54147427    -0.25480773     0.97585485
O       0.09899001     3.51755702     2.46989401    -0.18312663    -0.34020670    -0.14297987
O       0.21318398     1.98615600     6.73234400    -0.23215322    -0.29503497     0.05806684
O       2.65258701     2.05543001     2.27159500    -0.01938870    -0.86945202     0.04398722
O       2.60495000     3.36500098     7.12508602    -1.51379231    -1.09538240    -0.72974800
O       5.06738399     0.80234998     2.13265999     0.74725799    -1.22087311     1.44064646
O       2.39961203     0.64320002     6.61798499     0.73268934     0.24871447     0.12336749
O       2.58328702     4.69854797     2.31850699     0.91006853     0.71399587    -0.00449172
