# total energy = -19956.98088338 eV

CRYSTAL
PRIMVEC
        5.93400000     0.00000000     0.00000000
        0.00000000     9.29699974     0.00000000
        0.00000000     0.00000000     4.64899994
PRIMCOORD
24 1
Ti      4.40353102     7.11253600     2.37217498     0.99252409     1.33784266    -2.47650805
Ti      4.46994399     2.28482099     2.30179599    -0.57399976     1.99998990    -0.99241276
Ti      1.50799900     6.69582903     2.60408702    -0.76338164     2.05493362    -2.57989883
Ti      1.42597399     2.37734700     2.41314198     0.90756710     0.09192417    -1.96731528
Ti      3.05437299     4.49812500     0.01710698     0.77521797     2.98334698     1.17049155
Ti      2.88969699     0.25000000     4.46752199    -2.22468846    -4.14495279     1.80716172
Ti      0.05360999     4.48276701     4.62535599    -0.60048548     3.87901706     1.46730341
Ti      5.78382098     0.26670099     4.59164502     1.10812736    -3.42618290     2.45381240
O       4.49916103     5.35889599     0.81208901     0.17539789     0.60556932     0.78678537
O       4.29677798     1.24627402     0.63518701     1.42515118    -0.82789861     1.30096506
O       1.53195401     5.41349999     1.01628798    -0.19083506    -0.60412488    -0.88838049
O       1.44715399     1.14339799     0.88049602     0.60470389    -1.22168532    -1.49329238
O       4.52790302     8.76587099     3.56501199    -0.91521485    -2.67802091     0.90120516
O       4.59848998     3.47800901     3.90036601    -0.97436078    -0.59581173    -2.20776494
O       1.58727298     8.25724403     3.69978100     0.42351973     2.74356915     1.43236416
O       1.55718100     3.69154399     3.78889302    -0.35952983    -1.46136853    -1.78979134
O       3.07682100     6.00390299     3.24532998     0.39025092    -1.32051136     1.04161007
O       3.10564598     1.29191498     3.04448198    -2.12709732     1.77560913    -1.31485262
O       5.85832400     6.20309103     3.40035098     0.01778587    -1.97442387     0.38079466
O       5.87711800     1.26570700     3.07352402     1.63872586     1.94425993    -1.20448129
O       2.89262001     7.77970902     1.46776200     1.51336345     0.34776574     0.02587945
O       2.95988802     3.30868499     1.40484399    -0.00053273    -1.91726951     2.38613246
O       0.03622599     7.75851997     1.39125800    -1.46030538     0.79776270     0.14574715
O       0.04633598     3.18110099     1.39760400     0.21809545    -0.38933998     1.61444538
