# total energy = -19960.89895979 eV

CRYSTAL
PRIMVEC
        5.33102508     0.00000000     0.00000000
        0.00002922     5.67382281     0.00000000
        0.00000000     0.00000000     9.54136267
PRIMCOORD
24 1
Ti      1.93225750     3.36230215     3.53977757     0.00212862    -0.24818688     0.22002712
Ti      3.39879680     2.31152072     6.00158538    -0.00212862     0.24818688    -0.22002712
Ti      4.59767671     2.31152267     1.23086578     0.00803599     0.24827687    -0.21672736
Ti      0.73337759     3.36230042     8.31049727    -0.00803599    -0.24827687     0.21672736
Ti      1.93224300     0.52539085     1.23090404     0.00207102    -0.24799636    -0.21609025
Ti      3.39881130     5.14843218     8.31045901    -0.00207102     0.24799636     0.21609025
Ti      0.73336309     0.52538874     6.00154711    -0.00838900    -0.24863965    -0.22030583
Ti      4.59769121     5.14843429     3.53981583     0.00838900     0.24863965     0.22030583
O       1.68731338     1.99784952     4.86888444     0.43836760     0.38881162     0.02891567
O       3.64374091     3.67597340     4.67247851    -0.43836760    -0.38881162    -0.02891567
O       0.97825090     1.99787237     0.09823368    -0.43849435     0.38866250     0.02788182
O       4.35280345     3.67595055     9.44312899     0.43849435    -0.38866250    -0.02788182
O       3.64372641     0.83906194     0.09820272    -0.43826115    -0.38861082     0.02816336
O       1.68732788     4.83476092     9.44315995     0.43826115     0.38861082    -0.02816336
O       4.35278895     0.83903909     4.86891540     0.43871521    -0.38893838     0.02849940
O       0.97826529     4.83478383     4.67244755    -0.43871521     0.38893838    -0.02849940
O       0.19370622     3.45114068     2.57736015     0.15029826    -0.08732524     0.10717853
O       5.13734808     2.22268219     6.96400279    -0.15029826     0.08732524    -0.10717853
O       2.85922304     2.22262931     2.19335165     0.15003421     0.08756332    -0.10646968
O       2.47183126     3.45119356     7.34801113    -0.15003421    -0.08756332     0.10646968
O       0.19369172     0.61422922     2.19332118     0.15035097    -0.08782275    -0.10623391
O       5.13736258     5.05959365     7.34804160    -0.15035097     0.08782275     0.10623391
O       2.47181676     0.61428210     6.96403320    -0.15015325    -0.08764328    -0.10706103
O       2.85923754     5.05954077     2.57732968     0.15015325     0.08764328     0.10706103
