# total energy = -19910.28265155 eV

CRYSTAL
PRIMVEC
        6.55550748     0.00000000     0.00000000
        0.69600013     6.94224053     0.00000000
        0.00000000     0.00000000    11.74764450
PRIMCOORD
24 1
Ti      2.78850526     4.11396535     4.35829243    -0.09267468    -1.32623901     0.67812614
Ti      4.46300255     2.82827524     7.38935248     0.09267468     1.32623901    -0.67812614
Ti      5.93725326     2.82827760     1.51548310     0.17387991     0.41592134    -0.54266649
Ti      1.31425457     4.11396333    10.23216201    -0.17387991    -0.41592134     0.54266649
Ti      2.44050534     0.64284514     1.51553023    -0.09267468    -1.32623901    -0.67812614
Ti      4.81100249     6.29939571    10.23211488     0.09267468     1.32623901     0.67812614
Ti      0.96625455     0.64284259     7.38930542    -0.17387991    -0.41592134    -0.54266649
Ti      6.28525321     6.29939820     4.35833955     0.17387991     0.41592134     0.54266649
O       2.31993306     2.44448092     5.99473322     1.60098128     1.63748376    -0.27473353
O       4.93157475     4.49775973     5.75291168    -1.60098128    -1.63748376     0.27473353
O       1.44800889     2.44450900     0.12094859    -1.18731325     0.90827312     0.32671508
O       5.80349900     4.49773172    11.62669605     1.18731325    -0.90827312    -0.32671508
O       4.58357481     1.02663926     0.12091050    -1.60098128    -1.63748376    -0.27473353
O       2.66793301     5.91560140    11.62673414     1.60098128     1.63748376     0.27473353
O       5.45549906     1.02661125     5.99477138     1.18731325    -0.90827312     0.32671508
O       1.79600869     5.91562941     5.75287359    -1.18731325     0.90827312    -0.32671508
O       0.66152346     4.22266438     3.17333194     0.48619219     0.43716869     0.87096512
O       6.58998429     2.71957628     8.57431297    -0.48619219    -0.43716869    -0.87096512
O       3.78859054     2.71951162     2.70052787     0.53059464     0.92256923     0.17765532
O       3.46291728     4.22272897     9.04711690    -0.53059464    -0.92256923    -0.17765532
O       0.31352352     0.75154391     2.70049031     0.48619219     0.43716869    -0.87096512
O       6.93798423     6.19069668     9.04715439    -0.48619219    -0.43716869     0.87096512
O       3.11491734     0.75160856     8.57435046    -0.53059464    -0.92256923     0.17765532
O       4.13659048     6.19063209     3.17329445     0.53059464     0.92256923    -0.17765532
