# total energy = -19934.81307424 eV

CRYSTAL
PRIMVEC
        7.01832052     0.00000000     0.00000000
        0.00002762     4.97974352     0.00000000
        0.00000000     0.00000000    10.90386331
PRIMCOORD
24 1
Ti      2.54382011     2.95099138     4.04525551     0.50647306    -0.20760792     0.89833426
Ti      4.47452815     2.02875214     6.85860791    -0.50647306     0.20760792    -0.89833426
Ti      6.05285938     2.02875387     1.40663261     0.50629591     0.20726030    -0.90028110
Ti      0.96548888     2.95098988     9.49723088    -0.50629591    -0.20726030     0.90028110
Ti      2.54380629     0.46111974     1.40667632     0.50626634    -0.21093132    -0.90029756
Ti      4.47454196     4.51862396     9.49718717    -0.50626634     0.21093132     0.90029756
Ti      0.96547507     0.46111788     6.85856414    -0.50666692    -0.21104600    -0.89919764
Ti      6.05287319     4.51862581     4.04529923     0.50666692     0.21104600     0.89919764
O       2.22135254     1.75345237     5.56415800     0.92622432     1.01210177    -0.97859025
O       4.79699572     3.22629121     5.33970543    -0.92622432    -1.01210177     0.97859025
O       1.28786835     1.75347244     0.11226139    -0.92487320     1.01183951    -0.97884916
O       5.73048003     3.22627114    10.79160168     0.92487320    -1.01183951     0.97884916
O       4.79698197     0.73641939     0.11222599    -0.92568670    -1.01109955    -0.97728722
O       2.22136629     4.24332413    10.79163708     0.92568670     1.01109955     0.97728722
O       5.73046622     0.73639938     5.56419334     0.92478681    -1.01217530    -0.97901243
O       1.28788198     4.24334425     5.33967003    -0.92478681     1.01217530     0.97901243
O       0.25500876     3.02896229     2.94540553    -1.60808756     0.45384718     0.42481453
O       6.76333950     1.95078128     7.95845790     1.60808756    -0.45384718    -0.42481453
O       3.76417686     1.95073485     2.50656087    -1.60923144    -0.45367389    -0.42510301
O       3.25417139     3.02900873     8.39730238     1.60923144     0.45367389     0.42510301
O       0.25499495     0.53909047     2.50652601    -1.60763041     0.45399194    -0.42509736
O       6.76335331     4.44065304     8.39733718     1.60763041    -0.45399194     0.42509736
O       3.25415764     0.53913691     7.95849264     1.60980068     0.45359393    -0.42528350
O       3.76419061     4.44060667     2.94537072    -1.60980068    -0.45359393     0.42528350
