# total energy = -19960.64194271 eV

CRYSTAL
PRIMVEC
        5.93400000     0.00000000     0.00000000
        0.00000000     9.29699974     0.00000000
        0.00000000     0.00000000     4.64899994
PRIMCOORD
24 1
Ti      4.44453602     6.84209600     2.32950901    -0.26405856     1.41802228     1.08671444
Ti      4.45263999     2.42408901     2.35353201     0.36301496    -2.30039513     0.13033312
Ti      1.47220402     6.95160399     2.20450998     0.47957597     0.83739395     0.87532880
Ti      1.49386600     2.45974598     2.31565800    -0.27429773    -1.59861355     1.30171222
Ti      2.97317100     4.64644799     0.00715400    -0.20251404    -0.54069214    -0.46723518
Ti      2.91715399     9.20303300     4.62736300     1.42430683     0.59710088    -1.06955386
Ti      5.91903101     4.68525901     0.02544798     0.06866956    -0.59501186    -0.38528201
Ti      0.03301500     9.25653203     0.11230099    -1.79250925     1.09607737    -1.28092561
O       4.39998601     5.59796202     0.89284299     0.49091659    -0.38155005    -0.89202940
O       4.46889801     0.96663501     0.98502202     0.28522801    -0.70763496    -0.98717697
O       1.44183999     5.53927002     0.90228198     0.22925430     0.53107724    -0.21655202
O       1.56234101     0.87066401     0.78934201    -0.48317757     0.56101338     1.02074530
O       4.52728098     8.30995198     3.73125001    -0.36511015     0.54215458     0.16512016
O       4.40760003     3.65257098     3.81559499     0.11499597     1.07833701     0.72771631
O       1.47128601     8.34710600     3.61971802     0.33761554    -0.07802170     0.74002907
O       1.45378098     3.71855600     3.81302001     0.25415853     0.43850438    -0.03811919
O       2.98907299     5.92992502     3.08550099    -0.61903368     0.40786813     0.73323004
O       2.89916599     1.42469999     3.21014700     0.44368052     0.55642061    -0.60696929
O       5.90390500     5.99932799     3.24835301     0.50123186     0.32812328    -0.74999107
O       0.06628501     1.52408901     3.26007799    -0.15478227     0.06557010    -0.73732273
O       3.02297103     7.86729098     1.38038902    -0.87098852    -0.50972885     0.27799061
O       3.01701498     3.43575299     1.51371502    -0.43319890    -0.60613240    -0.20813165
O       5.90931002     7.87468899     1.37189800     0.68195143    -0.83539286     0.57048764
O       0.00907200     3.36807799     1.46120502    -0.21492991    -0.30448969     0.00988101
