# total energy = -19072.99532975 eV

CRYSTAL
PRIMVEC
        7.60600008     0.00000000     0.00000000
        0.00000000     7.60600008     0.00000000
       -1.89786986    -1.89786986     4.85670466
PRIMCOORD
22 1
Ti      3.79761302     6.62229201     0.90069201    -0.54874767    -1.31580547     3.15552919
Ti      3.91239802     2.84947301     1.22855097     0.23968604     2.76096833    -0.00222658
Ti      0.05516001     6.51690801     1.30616000     0.63647888     0.56829397    -0.03994313
Ti      0.06374199     2.87471699     1.03429599    -0.46646334    -0.36387448     0.35949692
Ti      5.73771721     2.97411225     3.60528884     0.52113735    -1.99216397    -0.21608922
Ti      5.99250224    -1.04529578     3.81491981    -0.20781617     2.56341651    -0.40865489
Ti      2.01033125     2.63358325     3.40652282    -1.95213445    -0.33717511     1.30556219
Ti      1.41926921    -0.72086277     3.96116583    -0.42769546    -1.22752584    -2.98366168
O       3.95311699     4.80572198     0.52360300    -0.39393532    -0.11405521    -0.48172798
O       3.64336801     1.11609102     0.94866902    -0.67632277    -2.34912321     0.91043825
O      -0.21148701     4.75656702     0.86676101     0.34994115     0.52974926    -0.65417348
O      -0.10427999     1.01454598     0.78845600     0.36677032     0.39775109     1.80177988
O       5.27387922     4.94901323     4.34313983     0.50068705    -3.25760923    -1.53405056
O       5.62878422     0.98544922     3.79647783     0.18223138    -0.41820063     2.54921939
O       1.88896524     5.10591524     4.02426482     0.31804635    -1.48120820    -0.75611981
O       2.38465721     0.76989125     4.05602382    -0.06125424     1.68071636    -0.77667476
O       3.78499923     2.75285324     3.15782984     1.10053669     0.92040848     0.35163088
O      -0.05813880     2.39381023     3.15149379     1.35254989     1.97159694     0.30029673
O       5.41573100     6.53187499     2.12545598    -0.32572418     0.11872073    -2.50308093
O       5.72344800     3.07071398     1.69618502     0.05506842    -0.01727036    -0.20139356
O       1.98088402     6.33139899     1.72904502    -0.68556743     1.74282164    -0.24190824
O       1.88750900     3.16103702     1.53885702     0.12252725    -0.38043162     0.06575187
