# total energy = -19517.33340924 eV

CRYSTAL
PRIMVEC
        5.17600016     0.00000000     0.00000000
        0.00000000     5.50899976     0.00000000
        0.00000000     0.00000000     9.26300011
PRIMCOORD
23 1
Ti      1.86141902     3.23360400     3.37264701     1.18445136    -1.11296412     3.19874637
Ti      3.28959598     2.25539599     5.97553798     0.76910234     0.56870226    -3.63166039
Ti      4.38447800     2.06062002     1.38980398     0.31371867    -0.34455623     0.80121081
Ti      0.91362600     3.34994198     7.76158402    -0.93425516     0.31979033    -0.14960072
Ti      2.06484100     0.19575902     1.33818200    -0.16725315     0.22455098     0.38840076
Ti      3.24027200     5.20047201     7.96491000     0.60949231     0.63267262    -1.10615095
Ti      0.71056799     0.59350398     5.89418698    -0.85968183    -0.10837127    -3.03800608
Ti      4.50073501     4.90549099     3.31694402     0.65602236    -0.01147381     3.80772343
O       1.65033900     1.92830899     4.71583202    -0.68345090    -0.57177370     1.41287390
O       3.48979802     3.52610302     4.46668198     0.79368827     0.16348314     0.13632045
O       5.12540499     2.92210402     9.25250800    -0.33668840    -0.12729434     0.78122124
O       3.46034301     0.85409298     0.16365299     0.24955368     0.05441305    -0.05294520
O       1.84452298     4.57898302     9.05363600     0.14301047    -0.26737374     0.24243918
O       4.13808698     0.69013498     4.96812902     0.54419501     0.37410053    -0.30986098
O       0.97092500     4.78988900     4.44772801    -0.04903558    -0.06897964     0.06501140
O       0.22131299     3.33638102     2.59432999    -1.21424994    -0.34522986    -1.30125816
O       4.90099299     2.07129702     6.94757600     0.21247939    -0.14878748    -0.75173145
O       2.71033602     1.73867297     2.31803300    -0.15170080     0.93450893    -0.24031827
O       2.48070701     3.82391000     6.77489599     0.31627357    -0.05717493     0.65973580
O       0.25739599     0.59182501     2.06284701     0.22862052     0.31261644    -0.89592283
O       5.10659602     4.82082703     7.16364801    -0.76176158    -0.12506442     0.73896875
O       2.24980502     1.15023602     7.11170900    -0.59815400    -0.83686791     0.62053495
O       2.96428998     4.39361699     2.28117200    -0.26437661     0.54107292    -1.37573173
