# total energy = -4984.08786419 eV

CRYSTAL
PRIMVEC
        2.84624493     0.00000000     0.00000000
        1.51449223     4.19460296     0.00000000
       -0.00000984    -0.00005909     4.53166251
PRIMCOORD
6 1
Ti      2.18036365     2.09727189     2.26583125     0.00000000     0.00000000     0.00000000
Ti      0.00000000     0.00000000     0.00000000     0.00000000     0.00000000     0.00000000
O       1.71827275     0.81745481     0.88315429    -5.61826564     2.52670218     3.06150366
O       2.64245455     3.37708896     3.64850827     5.61826564    -2.52670218    -3.06150366
O       0.46208677     1.27979319     3.14898645     5.61653992    -2.52467203     3.05896778
O       1.05239570     2.91475057     1.38267611    -5.61653992     2.52467203    -3.05896778
