# total energy = -19959.47389530 eV

CRYSTAL
PRIMVEC
        7.60600008     0.00000000     0.00000000
        0.00000000     7.60600008     0.00000000
       -1.89786986    -1.89786986     4.85670466
PRIMCOORD
24 1
Ti      3.85389700     6.67597101     1.10424697     0.75467999     0.18491458     1.33407779
Ti      3.65069500     2.79751199     1.14766300     1.16941914     0.54808406     1.48930949
Ti      0.10345902     6.71021402     1.25097100    -0.88182032     0.10820260    -0.99810416
Ti     -0.06008702     2.73553798     1.28198401    -1.38333192     0.78476063    -0.63765208
Ti      5.66156124     2.81679621     3.78145983     0.86821764    -0.59901764    -0.78636962
Ti      5.74079723    -0.93917876     3.60139679    -0.37095556     0.20742202    -0.11006125
Ti      1.95492824     2.72695022     3.66166982    -0.72148010     0.68005601    -0.80573261
Ti      2.01817223    -0.92035280     3.60272783    -0.01155120    -0.04454901    -0.37796002
O       3.90769898     4.70992301     0.67733402    -0.40107090     0.46608924     0.92549849
O       3.77643900     1.02275299     0.69103701     0.56935224    -0.40711017     0.54265055
O      -0.04929598     4.63518403     0.82423299    -0.12562415     2.04720077     1.13017664
O      -0.11619399     0.94101098     0.68221002    -0.04622022    -0.97549978     1.26114791
O       5.83773620     4.78275722     4.09567581     0.04715251    -0.94288918    -0.11866571
O       5.81927824     0.85793121     4.16951482    -0.84701168     1.36083347    -0.82925795
O       1.64675224     4.82007422     4.16411483     0.42620807    -0.33146623    -2.38638211
O       1.83617923     0.90773520     4.01141079     0.00897675     0.60955762     0.19613488
O       3.78018425     2.64151223     3.22306983    -2.18642246     0.50693663     0.76370971
O       3.84947323    -0.82886678     3.17415183    -0.73913587    -0.84289869     0.50177257
O      -0.04616177     2.63855222     3.09657979     0.86543262     0.19657017     2.76950465
O      -0.13453279    -0.57542776     3.07613683     2.69867382    -1.38071351     0.41271749
O       5.70848000     6.70529902     1.54558001    -0.77155029    -0.35939793    -0.63289296
O       5.54998602     2.81722199     1.93658902     0.44027664     0.24765646    -3.57916385
O       2.01619702    -0.50637098     1.70461100    -1.49982607    -1.78651010    -0.59623467
O       1.80064498     2.96489298     1.58056799     2.13761133    -0.27823255     0.53177709
