# total energy = -4989.35728207 eV

CRYSTAL
PRIMVEC
        2.98160982     0.00000000     0.00000000
        0.92509608     4.57922603     0.00000000
       -0.00000616    -0.00006117     4.69550563
PRIMCOORD
6 1
Ti      1.95334981     2.28958243     2.34775292     0.00000000     0.00000000     0.00000000
Ti      0.00000000     0.00000000     0.00000000     0.00000000     0.00000000     0.00000000
O       1.67109126     0.89241183     0.91508495    -1.08080655     0.44391912     0.39757651
O       2.23560837     3.68675304     3.78042089     1.08080655    -0.44391912    -0.39757651
O       0.28225603     1.39714583     3.26283871     1.08040495    -0.44430993     0.39786448
O       0.64283388     3.18201893     1.43266713    -1.08040495     0.44430993    -0.39786448
