# total energy = -19895.81238854 eV

CRYSTAL
PRIMVEC
        8.70561553     0.00000000     0.00000000
        0.00002741     3.51446500     0.00000000
        0.00000000     0.00000000    13.47412230
PRIMCOORD
24 1
Ti      3.15538328     2.08266866     4.99880329     0.11026746    -0.07643224     2.37562950
Ti      5.55025991     1.43179622     8.47531913    -0.11026746     0.07643224    -2.37562950
Ti      7.50804246     1.43179742     1.73820409     0.09832545     0.07617667    -2.37905318
Ti      1.19760072     2.08266765    11.73591846    -0.09832545    -0.07617667     2.37905318
Ti      3.15536969     0.32543622     1.73825810     0.11026746    -0.07643224    -2.37562950
Ti      5.55027349     3.18902878    11.73586444    -0.11026746     0.07643224     2.37562950
Ti      1.19758714     0.32543496     8.47526511    -0.09832545    -0.07617667    -2.37905318
Ti      7.50805604     3.18903004     4.99885731     0.09832545     0.07617667     2.37905318
O       2.75539205     1.23750285     6.87574146     1.86157940     0.62599238    -1.94937540
O       5.95025120     2.27696203     6.59838097    -1.86157940    -0.62599238     1.94937540
O       1.59748611     1.23751700     0.13872364    -1.85955594     0.62539202    -1.94779829
O       7.10815719     2.27694788    13.33539841     1.85955594    -0.62539202     1.94779829
O       5.95023761     0.51972953     0.13867994    -1.86157940    -0.62599238    -1.94937540
O       2.75540557     2.99473535    13.33544212     1.86157940     0.62599238     1.94937540
O       7.10814361     0.51971537     6.87578523     1.85955594    -0.62539202    -1.94779829
O       1.59749951     2.99474957     6.59833720    -1.85955594     0.62539202     1.94779829
O       0.31631184     2.13769683     3.63969657    -1.60365883     0.47900004     0.31637848
O       8.38933134     1.37676805     9.83442586     1.60365883    -0.47900004    -0.31637848
O       4.66913107     1.37673538     3.09740743    -1.60484334    -0.47848170    -0.31610928
O       4.03651217     2.13772956    10.37671475     1.60484334     0.47848170     0.31610928
O       0.31629826     0.38046433     3.09736440    -1.60365883     0.47900004    -0.31637848
O       8.38934492     3.13400055    10.37675778     1.60365883    -0.47900004     0.31637848
O       4.03649859     0.38049699     9.83446877     1.60484334     0.47848170    -0.31610928
O       4.66914465     3.13396789     3.63965360    -1.60484334    -0.47848170     0.31610928
