# total energy = -18964.13619584 eV

CRYSTAL
PRIMVEC
        7.60600008     0.00000000     0.00000000
        0.00000000     7.60600008     0.00000000
       -1.89786986    -1.89786986     4.85670466
PRIMCOORD
22 1
Ti      5.94568598     5.21155902     0.78482998    -4.92576292    15.82799744    -0.68570010
Ti      5.48952921     2.79547222     2.48074083   -15.40512409    -2.35756441     2.75256107
Ti     -1.09081376     4.19950822     4.23590582    -0.81795024    13.17985662     2.43312684
Ti      0.70052400     3.96233499     1.53531698     0.82019738     2.53514388    16.28957748
Ti     -1.54145475     2.33240525     4.67180881    -9.04706721    60.02051343    70.93800335
Ti      5.41930120     1.35355524     3.93657179   -62.31244398   -60.04173558   -21.97114858
Ti     -0.72254179     1.96847121     3.60301581    74.10852953     0.97867458   -44.57383542
Ti     -0.86370575    -0.08548276     4.27873579     4.20784071    -7.39514361     0.63515193
O       3.94380601     4.96276898     1.35584398     4.79730567     1.86120453     1.84248380
O       5.00483503     6.39770199     2.17010198    -0.02059377    -3.18999587    -3.11690735
O       0.27675298     5.88997701     1.52679702    -2.56579941    -0.62161996    -1.62842422
O      -0.44284479    -1.60278677     4.30272583     0.29299145    -9.68296039    -0.06555930
O       6.51561702     3.73382202     1.66200001    38.90353089    13.19444609    24.62516052
O       6.54300099     0.98254399     2.41662698    -2.21972803    -8.98838767    -9.85293300
O       2.40497598     5.88674500     0.29144998     0.23156778     0.24612923    -0.33263942
O       1.98501800     4.46053199     0.68797001    12.46824108     4.16068152    -4.29220404
O       4.24921521     1.65222822     2.74784982    -7.20928929     0.66506570    -4.16676964
O       0.75978100     2.61373699     2.30615599     2.64631405    -7.19063130     4.78447637
O       4.58680320     4.50832521     3.85406379     1.33250042    -3.39003446     1.91280787
O       5.74751402     3.55731903     1.02306600   -36.13740004   -11.12318904   -37.81137728
O       0.81135525     0.10178523     4.10136780     1.92308381     3.48857022     0.53120219
O       6.85541502     1.81544601     0.07384700    -1.07094380    -2.17702070     1.75294665
