# total energy = -19513.58094248 eV

CRYSTAL
PRIMVEC
        5.17600016     0.00000000     0.00000000
        0.00000000     5.50899976     0.00000000
        0.00000000     0.00000000     9.26300011
PRIMCOORD
23 1
Ti      2.00706601     2.92475499     3.18925900    -0.41322682    -0.13557329     4.48337617
Ti      3.16470099     2.51156598     5.97427902     1.45483895     0.93559522    -4.05942578
Ti      4.43546401     1.89931500     1.43529597     2.42858421    -0.42908385    -3.12050998
Ti      1.06952199     3.25771802     7.74394998    -2.28844541     2.52561460     2.90970721
Ti      2.07466402     0.05523600     1.25928802    -0.79013835    -1.00856778    -1.12153464
Ti      3.09671500     0.21152098     7.63006802     2.96121491    -3.87912428     1.00265861
Ti      0.66110802     0.65884399     6.16194702    -2.32185177     0.19710675    -2.77145380
Ti      4.59678200     4.69519902     3.20127301     1.43068677    -0.93743433     2.98525962
O       1.69882302     1.76047899     4.77426599     0.29824551     0.98597780     1.19042892
O       3.29117102     3.80536298     4.50622602     0.33686966    -1.35018704    -0.59542658
O       0.39541802     2.47203300     0.05239903    -1.22914486    -0.73956319     1.62981698
O       3.50543801     0.52238801     0.17870099     0.76253317     1.79969780     0.00907651
O       1.70206502     4.49002600     9.10773601     0.37630860     1.08668255    -0.32476593
O       4.12463900     0.93796398     5.37451698    -1.04568733     0.21336359     0.39163366
O       0.55710098     4.86573798     4.53826998     0.56245525     0.00380009    -0.13260084
O       0.22658401     2.87952102     2.71088297    -1.00460854     1.69893289     0.27144843
O       4.88087399     2.45232702     6.93980598    -1.04159002    -0.74353220    -1.17492516
O       2.83333898     1.52755200     2.41719098     0.26618795    -0.34964342    -0.59075411
O       2.38400098     4.19598802     6.71330701     0.11086190     1.28948096     0.18019223
O       0.30738700     0.40005800     1.85376802    -0.77367814    -0.45600717     0.88180207
O       4.96501899     5.04289203     7.36291902     0.15265545     0.40852659     0.34505606
O       2.18373099     1.79424802     7.50264399    -0.27147466    -1.34230172    -0.57674879
O       2.91894102     4.28412498     2.27865698     0.03840407     0.22623968    -1.81231010
