# total energy = -4984.44989522 eV

CRYSTAL
PRIMVEC
        3.16515476     0.00000000     0.00000000
        2.33379934     4.37587304     0.00000000
       -0.00001501    -0.00006761     5.13199969
PRIMCOORD
6 1
Ti      2.74946929     2.18790261     2.56599995     0.00000000     0.00000000     0.00000000
Ti      0.00000000     0.00000000     0.00000000     0.00000000     0.00000000     0.00000000
O       2.03739745     0.85277999     1.00015121    -2.18414266     1.35842435     1.20831943
O       3.46154116     3.52302534     4.13184875     2.18414266    -1.35842435    -1.20831943
O       0.71206548     1.33509545     3.56615216     2.18416272    -1.35829065     1.20835748
O       1.62171850     3.04070996     1.56584775    -2.18416272     1.35829065    -1.20835748
