# total energy = -39033.66532550 eV

CRYSTAL
PRIMVEC
        7.60600008     0.00000000     0.00000000
        0.00000000     7.60600008     0.00000000
       -3.79573973    -3.79573973     9.71340985
PRIMCOORD
46 1
Ti      1.69743043     4.62345047     6.05957863     0.14460609     0.36201454     1.02904328
Ti      3.96984402     6.87119202     1.20677798    -0.89311364    -1.70121115     0.60864539
Ti      1.98043247     0.54291443     6.00440164    -0.65135709     0.77411523     1.02718926
Ti      4.03350902     2.72596601     1.26729802    -0.64618248     0.51187752    -1.39625017
Ti     -2.15218652     4.59375945     6.00888261     0.79662679     2.40959070     1.00027237
Ti     -0.08979799     6.67609601     1.26205499     1.23467916     0.50109045    -2.64483027
Ti     -1.86215453     0.96312546     6.06947065    -0.25718780    -2.47147229     0.90828701
Ti      0.13153600     2.84589101     1.10760497     0.30446912    -0.10985865     1.66260011
Ti      3.83891043     1.00137746     8.41539362    -2.55570397     2.12976689     0.89913336
Ti      5.87041697     2.84379902     3.71787199     0.09357919    -0.51406193    -1.48431229
Ti      3.79126644    -2.64456754     8.50460465    -1.87877931    -3.02142992    -0.32850252
Ti      5.74805601    -0.96237402     3.79649502    -0.99860578     0.04951124     0.27895708
Ti      0.00024945     1.04338545     8.38842564     1.49216650    -1.34215517    -0.45987385
Ti      2.04529198     2.83751001     3.52078002    -0.68932124     0.69028618     0.78343831
Ti     -0.15955853    -2.84573956     8.48914161     1.53689651     0.68557000    -0.18815340
Ti      1.82611698    -0.94847598     3.51923599     0.27412341    -0.26334097     0.03203004
O       1.63827646    -1.19859753     5.72335264     0.57267102     1.97815351    -0.69909735
O       3.68826801     0.93830000     0.76429700     0.06202326     1.95620503    -0.11864694
O       5.28406546     2.74843747     5.65161562     0.99370654     1.23627145    -0.12228634
O       0.10948698     4.87415597     0.96358600    -0.15773312    -1.07309324    -0.97242063
O      -1.95160157    -1.06088857     5.74886565    -0.10129019     0.50678082    -0.63633824
O       0.07557900     1.00183800     0.70952398     0.02742520     0.46239019     0.47513258
O       3.50772644     3.01915344     8.81096864     1.27817685    -1.24228140     0.94514456
O       5.82456101     4.74583298     4.07359800    -0.26348701    -1.20493123     0.14843807
O       3.80724145    -0.85231156     8.91276563    -0.20496636     1.34886678     0.13334054
O       5.75190799     0.90720899     4.24399001    -0.49634908     1.21323590    -1.70150374
O       0.18324345     2.83458144     9.01814662    -1.11925561    -0.42475077    -0.70686466
O       1.74916698     4.81695498     4.06671902     0.76368374    -1.79428537    -0.92397589
O      -0.11905753    -0.72000455     8.90658563     0.37929828    -0.81924633     1.35927847
O       2.16298899     0.98799001     4.20005999    -0.46181735     0.04959506    -0.26273444
O       1.98338644     0.99505347     8.30860560    -1.48554822    -0.49498794    -1.33173680
O       3.92416898     3.02508101     3.11797999     0.97468320     0.11488902     1.01632763
O       1.66207547    -2.78428356     8.03256664     0.86759569     0.38788011     0.49549239
O       3.73465902    -0.94405602     3.03566498     0.34152439    -0.42540872     1.93381328
O      -1.99313854     1.04385245     8.05044563     2.43320449     0.76133118    -0.20831883
O       0.15391099     2.86376699     3.08775597    -1.84014693    -0.16395751     1.34295838
O      -2.03330453    -2.63818857     8.26403961     1.02395353    -0.89394282    -1.49164971
O      -0.13936100    -0.59609103     3.45578399     2.11602923    -1.07778525    -1.29523149
O       3.67057444     4.92541648     6.50933765     0.27060845    -1.12951021    -0.42115045
O       5.75664402     6.73268098     1.65904498    -1.60234937    -0.11694230     0.57073781
O       3.75008248     0.78345946     6.41061863     0.95218835     0.10083922     0.99529394
O       5.84131900     2.45838901     1.56411201    -0.44004601     1.28211012     0.68553940
O      -0.13535153     4.60113248     6.52563562    -1.76318813    -1.17676324    -0.57129753
O       1.72662800     6.87589402     1.63493100     1.29042996    -0.51533308     0.90160008
O       0.11080442     0.63721545     6.46136064    -1.84813406     2.05929087     0.62753427
O       2.01927001     2.71683802     1.68828001     0.13021408     0.40508697    -1.89505209
