# total energy = -4979.64666475 eV

CRYSTAL
PRIMVEC
        4.69688804     0.00000000     0.00000000
       -0.00001046     4.69688804     0.00000000
       -2.34848086    -2.34848608     5.99427374
PRIMCOORD
6 1
Ti     -0.00020684     3.52284393     1.49856827    -0.00163728     0.00163728    -0.00000000
Ti      2.34860344    -1.17444210     4.49570508     0.00163728    -0.00163728     0.00000000
O       0.00004692     1.17421403     0.97641815    -0.00043143    -0.00242044    -1.33771565
O       2.34834955     1.17418766     5.01785527     0.00043143     0.00242044     1.33771565
O      -0.00002653    -1.17419364     3.97355495    -0.00242044    -0.00043143    -1.33771565
O       2.34842293     3.52259527     2.02071846     0.00242044     0.00043143     1.33771565
