# total energy = -19073.92480696 eV

CRYSTAL
PRIMVEC
        7.60600008     0.00000000     0.00000000
        0.00000000     7.60600008     0.00000000
       -1.89786986    -1.89786986     4.85670466
PRIMCOORD
22 1
Ti      3.62337802     6.69297999     1.32339002     1.24427221    -0.14454902    -1.70820069
Ti      3.98044799     2.89634002     1.23351000     0.25725671    -1.34494071    -0.06651626
Ti     -0.02929499     6.61059302     1.10978899    -1.72248549    -0.94109893    -0.99687877
Ti      0.19899398     2.61529700     1.04257602     0.22772269     2.05164364     1.29821629
Ti      5.87899721     2.80602423     3.53006280     1.27930042     0.79525150     0.26024716
Ti      5.73481520    -0.97891478     3.64144879     0.32180325    -0.50485918    -1.79627978
Ti      2.04149222     2.95222521     3.72206280    -0.97620452    -0.25228779    -0.89086572
Ti      1.18468525    -0.79972478     3.92279381    -0.51132062    -0.29890345    -1.53517619
O       3.58177400     4.57841400     0.85727598     0.13983258     3.94843868    -1.09331806
O       3.93159699     0.96804098     0.64103400     0.09241217    -0.62905045     4.18360034
O       0.14880501     4.61374399     0.52308901    -0.18407640     1.20066808     0.86288748
O       7.10771001     0.87006699     0.69133102     1.06670353    -0.06044589     0.35919250
O      -1.52657678     4.85718124     3.96306981    -0.20922077    -1.75125820     0.87819095
O      -1.42504475     0.82486123     3.90297480    -0.39503164     0.85908842     0.16391432
O       1.80880023     4.85846322     4.21602781    -0.34371882    -1.56279087    -0.06243438
O       1.93616420     0.89000724     3.98562583    -0.10661675     1.55429003     0.21963837
O       3.93523625     3.12066424     3.30277683     0.41695441    -0.75841555    -0.35560093
O       0.16667221     3.08819821     3.08379683    -0.33099212    -1.16604662    -0.46295763
O       5.53128998     6.43699801     1.66673397     0.15305603     0.37298159     0.69456886
O       5.84441500     2.91203801     1.36488402     0.08861619    -0.07247891     1.33697954
O       1.55619202     6.72915301     2.09431798     1.39669292    -0.34826479    -1.54640857
O       2.11100399     2.72809801     1.65139302    -1.90495624    -0.94697158     0.25720169
