# total energy = -4935.60737041 eV

CRYSTAL
PRIMVEC
        5.98330315     0.00000000     0.00000000
       -0.00000776     2.26952847     0.00000000
       -2.99168745    -1.13487196     6.60341602
PRIMCOORD
6 1
Ti     -0.00025566     1.70221058     1.65085372    -0.03081545    -0.02012686    56.86593118
Ti      2.99186366    -0.56755436     4.95256179     0.03081545     0.02012686   -56.86593118
O       0.00006352     0.56736406     1.07564242     0.02945457     0.02039991   -52.54638808
O       2.99154431     0.56729211     5.52777314    -0.02945457    -0.02039991    52.54638808
O      -0.00002594    -0.56742657     4.37735043    -0.00142876     0.00005656    -1.10774658
O       2.99163365     1.70208267     2.22606513     0.00142876    -0.00005656     1.10774658
