# total energy = -19515.19667396 eV

CRYSTAL
PRIMVEC
        5.17600016     0.00000000     0.00000000
        0.00000000     5.50899976     0.00000000
        0.00000000     0.00000000     9.26300011
PRIMCOORD
23 1
Ti      1.85514198     3.23139003     3.46691698    -0.96493615    -0.99268916     0.42521640
Ti      3.37120501     2.34475000     5.91637602     1.97534484     0.10069421    -2.95516871
Ti      4.31040202     1.99289100     1.45759000    -0.64974526     1.56902117    -1.16686578
Ti      0.87275002     3.46654698     7.79112502    -1.70932221    -0.19758472     2.91846259
Ti      2.10294298     0.02909898     1.42341002    -3.01523561     2.24534445    -1.51144669
Ti      3.20012502     5.31909900     7.90487299     0.60859346    -1.24234568     1.62596701
Ti      0.87254698     0.62744001     5.99702702    -2.00205784     0.10841498    -2.46065360
Ti      4.45158000     4.88151900     3.17017501     2.36626811    -0.45405313     2.80523657
O       1.72480001     1.88831901     4.74528999     0.36024151    -0.37054264     1.12241524
O       3.47029397     3.55823900     4.40765898     0.59648870     0.76681098     0.79509544
O       5.04034398     2.61381599     9.23110501     0.26176102     0.33922942    -0.58833007
O       3.47058698     0.54225200     0.28734499     0.74795501     0.36961087     0.14244405
O       1.43704099     4.79193400     9.11906098     1.03838899     0.10195405     0.11316946
O       4.46209697     0.83091100     5.01663002    -1.98944169     0.38658684    -0.54113257
O       0.87250602     4.74916801     4.26590297     1.51182593    -0.78369182     0.33871031
O       0.14773401     3.31092299     2.34149498     0.72410597     1.11745790     1.66231214
O       5.14842500     2.18674497     6.80827998    -0.31845953    -0.63863938    -0.74651288
O       2.34459701     1.89229800     2.13143399     1.81136907    -1.41654673    -0.35248140
O       2.58130302     3.72793598     7.14388197     0.77347656    -1.21777004    -1.34180293
O       0.15108201     0.61466800     1.97934702     0.77180946    -1.38340108     0.87598700
O       4.94933301     4.79204100     7.25543503    -0.36644121     1.49966924    -1.08533709
O       2.51725501     1.22345002     7.13150198    -1.80099621     0.13659351    -0.26339702
O       3.04055701     4.20063198     2.11784102    -0.73099318    -0.04412297     0.18811278
