# total energy = -19075.32460185 eV

CRYSTAL
PRIMVEC
        7.60600008     0.00000000     0.00000000
        0.00000000     7.60600008     0.00000000
       -1.89786986    -1.89786986     4.85670466
PRIMCOORD
22 1
Ti      3.60856302     6.64159000     1.34522397     1.26862005     0.26602160    -0.44987406
Ti      3.81940602     2.87898698     1.32402598     1.63602723     0.32606665    -0.84901277
Ti      0.08872498     6.71519998     1.12013298    -1.54078145    -0.51031352    -1.06375576
Ti      0.23170201     2.86012398     1.01418402    -1.77589709    -0.00561606    -0.23113403
Ti      5.83777224     2.87175820     3.41018881    -0.22164100     0.41994692     0.47285844
Ti      6.02505521    -0.92028676     3.55691082    -0.67464126    -0.64127450    -0.57275278
Ti      1.92270622     2.75736924     3.64898882    -0.55610385     0.37097201     0.86829786
Ti      1.28997221    -0.92018378     4.03153280     0.07424475    -0.96203903     0.03582834
O       3.62532000     4.81848198     0.87453801    -0.05881041    -2.10990923     0.36895473
O       4.00410602     0.86303200     0.98053301    -0.74282257     0.61841970     0.43596233
O       0.21199100     4.73875698     0.54024801     0.65255908    -0.18199535     0.72176266
O      -0.16154300     0.96530900     0.63725398     0.82181281    -0.15311336     0.28656909
O       5.79389122     4.77347524     3.85549882     0.17150884     0.29401090     0.19759269
O       5.57005623     0.92594424     3.83614379     0.81737122     0.15678130     0.01400686
O       1.73924925     4.71197823     4.33465882    -0.57776669     0.91074216    -1.64837033
O       1.79160822     0.89867923     4.07099583     0.00378647     0.90106786     1.05488597
O       3.73857620     2.96473523     3.23331681     0.76307285     0.07595067     0.10019207
O       0.07337921     2.84994324     2.98410380     0.47187859     0.10063996     0.41609566
O       5.85382499     6.52618200     1.54760300    -0.23305722     0.18662411     1.52640743
O       5.76026000     2.95263501     1.44607600    -0.47145205     0.01982501     0.63091450
O       1.66137198    -0.83561501     2.23993999     1.58770410    -0.71520455    -2.14504491
O       2.02249799     2.44790898     1.58615499    -1.41561316     0.63239700    -0.17038398
