# total energy = -19075.71560839 eV

CRYSTAL
PRIMVEC
        7.60600008     0.00000000     0.00000000
        0.00000000     7.60600008     0.00000000
       -1.89786986    -1.89786986     4.85670466
PRIMCOORD
22 1
Ti      3.83957699     6.49573700     1.24120302     0.65566137     0.24168044     0.47943764
Ti      3.76525298     2.70437298     1.19223200     0.74992654     0.47666908    -0.07937590
Ti      0.18727599     6.73948303     1.07927801    -1.13349876     0.14157399     0.14791279
Ti      0.01386402     2.94687603     1.14385399    -0.45020804    -0.33757877    -1.24677929
Ti      5.74556025     2.93255220     3.47824481    -1.10293553     0.28699333     1.00446044
Ti      6.03521722    -0.79521079     3.62730182    -0.74748733    -0.98669591     0.25373944
Ti      1.87156420     2.80352022     3.63026082     0.86021559    -0.57302249     0.05710139
Ti      1.26588723    -1.12973776     3.94327779     0.97392910     1.33468329    -1.60664877
O       3.93160303     4.63909697     0.68460799    -0.48074068    -0.02609311     0.71121985
O       4.03250702     0.82263599     0.85967300    -1.15191429     0.18594276     1.23831316
O       0.27998202     4.87413502     0.62564102    -0.35427886    -0.70173582     0.02227862
O      -0.21037299     1.01340100     0.80925399     1.40011994     0.70584830    -0.06577810
O       5.65495722     4.94156220     3.99779580     0.58363112    -0.38465157    -0.76164151
O       5.48142725     1.00213021     3.98433781     0.97819919     0.43538717    -0.29009871
O       1.85519521     4.69952923     4.25846983    -0.37812071    -0.68268034    -1.41062522
O       1.73964322     0.67808021     4.03567981    -0.14165241     1.91046380     0.59397287
O       3.85078623     3.05248023     3.25258479    -0.89672758    -0.75469053    -0.71061898
O       0.06348323     2.92208524     3.06455182    -0.64875719     0.03988091     1.31528482
O       5.82119000     6.61420899     1.73738199    -0.45615629    -0.27848143     0.43207250
O       5.72154502     2.95223802     1.52322798    -0.06522891     0.06952703     0.56684541
O       1.85636797     6.63225002     2.06776201     0.83991389    -0.48061289    -0.43359074
O       1.90457502     2.92298500     1.61175801     0.96610985    -0.62240748    -0.21748121
