# total energy = -4989.73648240 eV

CRYSTAL
PRIMVEC
        3.85190778     0.00000000     0.00000000
        0.94815335     3.73338972     0.00000000
       -2.40006564    -1.86672214     4.95535886
PRIMCOORD
6 1
Ti      0.71098993     2.80018526     1.23883964     0.00042012    -0.00042012     0.00000000
Ti      1.68900574    -0.93351754     3.71651891    -0.00042012     0.00042012     0.00000000
O       0.23707873     0.93334211     0.80718741    -0.00038747    -0.00033784    -0.72562780
O       2.16291677     0.93332552     4.14817114     0.00038747     0.00033784     0.72562780
O      -0.23705120    -0.93332070     3.28486668    -0.00033784    -0.00038747    -0.72562780
O       2.63704669     2.79998828     1.67049186     0.00033784     0.00038747     0.72562780
