# total energy = -19933.26695918 eV

CRYSTAL
PRIMVEC
        6.82940532     0.00000000     0.00000000
        0.00002403     3.91383603     0.00000000
        0.00000000     0.00000000    10.33231944
PRIMCOORD
24 1
Ti      2.47534528     2.31933573     3.83321696    -0.07519014     1.04296607     0.07648649
Ti      4.35408423     1.59450062     6.49910291     0.07519014    -1.04296607    -0.07648649
Ti      5.88993091     1.59450201     1.33290173    -0.07246811    -1.04258760    -0.07525082
Ti      0.93949861     2.31933445     8.99941825     0.07246811     1.04258760     0.07525082
Ti      2.47533337     0.36241777     1.33294314    -0.07519014     1.04296607    -0.07648649
Ti      4.35409614     3.55141869     8.99937684     0.07519014    -1.04296607     0.07648649
Ti      0.93948670     0.36241622     6.49906150     0.07246811     1.04258760    -0.07525082
Ti      5.88994281     3.55142018     3.83325837    -0.07246811    -1.04258760     0.07525082
O       2.16155843     1.37812826     5.27250369     2.51277605    -0.50164298     1.00001783
O       4.66787108     2.53570803     5.05981618    -2.51277605     0.50164298    -1.00001783
O       1.25320119     1.37814403     0.10637700    -2.51210010    -0.50151160     0.99852479
O       5.57622837     2.53569232    10.22594254     2.51210010     0.50151160    -0.99852479
O       4.66785917     0.57879002     0.10634349    -2.51277605     0.50164298     1.00001783
O       2.16157034     3.33504633    10.22597606     2.51277605    -0.50164298    -1.00001783
O       5.57621647     0.57877425     5.27253721     2.51210010     0.50151160     0.99852479
O       1.25321294     3.33506210     5.05978261    -2.51210010    -0.50151160    -0.99852479
O       0.24814270     2.38061696     2.79101734    -0.13926463     0.19981901     1.20300265
O       6.58128682     1.53321938     7.54130253     0.13926463    -0.19981901    -1.20300265
O       3.66285379     1.53318279     2.37517541    -0.13680331    -0.19989255    -1.20281753
O       3.16657573     2.38065356     7.95714425     0.13680331     0.19989255     1.20281753
O       0.24813079     0.42369890     2.37514243    -0.13926463     0.19981901    -1.20300265
O       6.58129873     3.49013745     7.95717722     0.13926463    -0.19981901     1.20300265
O       3.16656382     0.42373549     7.54133545     0.13680331     0.19989255    -1.20281753
O       3.66286569     3.49010086     2.79098437    -0.13680331    -0.19989255     1.20281753
