# total energy = -4987.67309380 eV

CRYSTAL
PRIMVEC
        3.70393270     0.00000000     0.00000000
        1.42458291     3.41901755     0.00000000
       -2.56429219    -1.70953170     4.82838369
PRIMCOORD
6 1
Ti      1.06833706     2.56439479     1.20709567     0.00099579    -0.00099579     0.00000000
Ti      1.49588647    -0.85490891     3.62128736    -0.00099579     0.00099579     0.00000000
O       0.35618424     0.85474991     0.78650413     0.00003214     0.00015787    -1.59090975
O       2.20803913     0.85473590     4.04187895    -0.00003214    -0.00015787     1.59090975
O      -0.35615224    -0.85472858     3.20069587     0.00015787     0.00003214    -1.59090975
O       2.92037555     2.56421435     1.62768726    -0.00015787    -0.00003214     1.59090975
