# total energy = -4989.06679824 eV

CRYSTAL
PRIMVEC
        3.14875000     0.00000000     0.00000000
        0.49213126     4.90901264     0.00000000
       -0.00000328    -0.00006402     4.93981310
PRIMCOORD
6 1
Ti      1.82043905     2.45447431     2.46990655     0.00000000     0.00000000     0.00000000
Ti      0.00000000     0.00000000     0.00000000     0.00000000     0.00000000     0.00000000
O       1.67028350     0.95668183     0.96269681     0.13149321    -0.43595076    -0.47584067
O       1.97059466     3.95226678     3.97711624    -0.13149321     0.43595076     0.47584067
O       0.15015421     1.49776653     3.43260436    -0.13144616     0.43669432    -0.47654566
O       0.34197400     3.41118197     1.50720869     0.13144616    -0.43669432     0.47654566
