# total energy = -4987.60233750 eV

CRYSTAL
PRIMVEC
        3.25271816     0.00000000     0.00000000
        0.50838088     5.07110268     0.00000000
       -0.00000339    -0.00006614     5.10292014
PRIMCOORD
6 1
Ti      1.88054789     2.53551827     2.55146007     0.00000000     0.00000000     0.00000000
Ti      0.00000000     0.00000000     0.00000000     0.00000000     0.00000000     0.00000000
O       1.72543437     0.98827038     0.99448397     0.35986356    -0.63633850    -0.68554249
O       2.03566146     4.08276616     4.10843611    -0.35986356     0.63633850     0.68554249
O       0.15511213     1.54722108     3.54594507    -0.35981548     0.63747287    -0.68618141
O       0.35326559     3.52381533     1.55697501     0.35981548    -0.63747287     0.68618141
