# total energy = -19898.98924978 eV

CRYSTAL
PRIMVEC
        6.80446473     0.00000000     0.00000000
        2.45941744     6.81160451     0.00000000
        0.00000000     0.00000000    12.37516904
PRIMCOORD
24 1
Ti      3.92373979     4.03655042     4.59109947    -0.39814550    -1.85467778     0.48228668
Ti      5.34014263     2.77505391     7.78406971     0.39814550     1.85467778    -0.48228668
Ti      6.87038132     2.77505623     1.59643571     0.22018550    -0.87798192    -0.04605465
Ti      2.39350113     4.03654830    10.77873361    -0.22018550     0.87798192     0.04605465
Ti      2.69403124     0.63074834     1.59648532    -0.39814550    -1.85467778    -0.48228668
Ti      6.56985120     6.18085612    10.77868399     0.39814550     1.85467778     0.48228668
Ti      1.16379244     0.63074583     7.78402009    -0.22018550     0.87798192    -0.04605465
Ti      8.10009001     6.18085870     4.59114909     0.22018550    -0.87798192     0.04605465
O       3.01965880     2.39848167     6.31495404     1.76582119     1.97246906    -0.68292382
O       6.24422362     4.41312266     6.06021514    -1.76582119    -1.97246906     0.68292382
O       2.11462876     2.39850914     0.12740933    -0.46680375    -0.40181601     1.32066074
O       7.14925373     4.41309524    12.24775950     0.46680375     0.40181601    -1.32066074
O       5.01451504     1.00732045     0.12736918    -1.76582119    -1.97246906    -0.68292382
O       4.24936737     5.80428388    12.24779966     1.76582119     1.97246906     0.68292382
O       5.91954515     1.00729296     6.31499420     0.46680375     0.40181601     1.32066074
O       3.34433720     5.80431138     6.06017498    -0.46680375    -0.40181601    -1.32066074
O       1.74317900     4.14320388     3.34284190     0.57890209     2.30321795     2.25768601
O       7.52070342     2.66840044     9.03232728    -0.57890209    -2.30321795    -2.25768601
O       4.61290535     2.66833699     2.84478203     0.52564218     1.97724540     1.39105680
O       4.65097707     4.14326733     9.53038694    -0.52564218    -1.97724540    -1.39105680
O       0.51347043     0.73740167     2.84474249     0.57890209     2.30321795    -2.25768601
O       8.75041199     6.07420266     9.53042649    -0.57890209    -2.30321795     2.25768601
O       3.42126849     0.73746512     9.03236669    -0.52564218    -1.97724540     1.39105680
O       5.84261392     6.07413921     3.34280242     0.52564218     1.97724540    -1.39105680
