# total energy = -19073.71320148 eV

CRYSTAL
PRIMVEC
        5.17600016     0.00000000     0.00000000
        0.00000000     5.50899976     0.00000000
        0.00000000     0.00000000     9.26300011
PRIMCOORD
22 1
Ti      1.75878600     3.38381900     3.43606600     1.82958020     1.35673770    -1.54584087
Ti      3.77586299     2.26835099     5.84249398    -2.68876812     0.98017585    -0.31327798
Ti      4.25392298     2.42016998     1.26051100     0.68781380    -1.05862692    -0.75312473
Ti      0.77591101     3.12868900     8.06708201     0.63593715     1.76921094    -0.66166362
Ti      1.76299798     0.59709498     1.15000498     0.61120390    -1.08907239    -0.04066124
Ti      3.30849200     4.96194299     7.93249700    -0.82497578     0.17923938     0.29004188
Ti      0.80812103     0.09638001     6.10994202     0.44796373     0.59567289    -0.81933760
Ti      4.45071998     5.03610400     3.43310102    -0.67130037     0.82785876    -0.59660286
O       3.44533898     3.61976199     4.34719899     0.44827689    -1.99229124     1.46764279
O       0.84357198     2.03339502     0.23306300    -0.75090484    -0.69119326     0.14494368
O       4.17434700     3.69207502     9.00403002     1.56371056    -1.01117951     0.54313597
O       3.31996498     0.85748898     0.22243997     1.71514113     0.30172395    -1.74136717
O       1.78890100     4.60938103     8.90940699    -2.30268547     0.03061491     0.88907340
O       4.25146998     0.63725398     4.96353899     0.32658062     0.49334551     0.07570539
O       1.09364898     4.90540601     4.33658698    -0.68027353    -0.46699247     1.42340952
O       0.10996002     3.53132399     2.53855101    -0.43093762    -0.55335328    -1.02054759
O       0.00737498     1.74453102     6.93970301     0.31494971    -0.70300440     0.26350475
O       2.65881299     2.04436899     2.07155700    -1.01720129     1.28205201     2.27017978
O       2.32338299     3.53661698     6.72844100    -0.25311440    -0.44172186     0.82380207
O       5.13652100     0.90180598     2.34202098     0.28749058    -0.45655893    -0.69030135
O       2.44384500     0.72337101     6.78855702     0.23295566     1.04979312    -0.86278387
O       2.60943298     4.80409402     2.28934498     0.51855750    -0.40243102     0.85406936
