# total energy = -19517.07223045 eV

CRYSTAL
PRIMVEC
        5.93400000     0.00000000     0.00000000
        0.00000000     9.29699974     0.00000000
        0.00000000     0.00000000     4.64899994
PRIMCOORD
23 1
Ti      4.47544298     6.99505601     2.47421501     0.25966995     1.17101888    -1.19726368
Ti      4.41075599     2.42241501     2.28438701    -0.30842939    -1.03327712    -0.19602432
Ti      1.39408497     7.04969102     2.13236799     0.12580695     0.76741107    -0.05883895
Ti      1.40310200     2.28430298     2.45392397     0.72735790    -0.03030329    -0.64686254
Ti      3.05833001     4.68158398     0.06451703    -0.53585461    -0.54064715     0.80762494
Ti      2.98212399     0.09204001     0.07302699     1.29835718    -0.24653623     0.76986853
Ti      0.05725100     4.53005402     4.61088998     0.01026796     0.75475944     0.11628770
Ti      0.12203298     9.27913202     4.49094100    -1.20695238    -0.24290712     1.11776797
O       4.46713702     5.58073598     0.75940401    -0.10552943     0.71704366     0.50213946
O       4.52423201     0.84990999     0.85995198    -0.66969086     0.51103111     0.47275020
O       1.35186298     5.52496499     1.06172001     1.04131979    -0.74561428    -1.64327492
O       1.34206299     1.01196899     0.99394998     1.05410975    -1.50466541    -1.38477714
O       4.46759301     8.31803199     3.83522598    -0.22082133    -0.31933627    -0.82496575
O       4.39773600     3.84085198     3.60001903    -0.00917704    -0.22363566     0.60280179
O       1.57261800     8.17162600     3.77579202    -0.70027209     1.03153803     0.19808069
O       1.56400501     3.57281498     3.88286300    -0.77388048     1.01427255    -0.77052365
O       2.92227600     1.37726899     3.39709500     0.00277371     0.84298019    -1.77569963
O       5.80089801     5.96769298     3.08997799     0.96617002    -0.40833530     1.08214404
O       5.90802200     1.35554002     3.16771302    -0.15220422    -0.11917376     0.69562533
O       2.93791600     7.86556100     1.33547801    -0.41641088    -1.01990301     1.66145339
O       3.08098298     3.32717899     1.35641798    -0.80170163    -0.90113394     0.72132043
O       5.84648102     7.90970999     1.43531201     0.11450001    -0.04017633     0.08727973
O       5.87372402     3.19978502     1.42000699     0.30059061     0.56558968    -0.33691414
