# total energy = -4988.95528281 eV

CRYSTAL
PRIMVEC
        3.37771599     0.00000000     0.00000000
        0.00000000     3.91175542     0.00000000
        0.00000000    -0.00006172     4.70799481
PRIMCOORD
6 1
Ti      1.68885805     1.95584669     2.35399740     0.00000000     0.00000000     0.00000000
Ti      0.00000000     0.00000000     0.00000000     0.00000000     0.00000000     0.00000000
O       1.68885805     0.76233143     0.91751883     0.00000000    -0.16321138    -0.19215841
O       1.68885805     3.14936191     3.79047593     0.00000000     0.16321138     0.19215841
O       0.00000000     1.19349033     3.27151728     0.00000000     0.16305222    -0.19170846
O       0.00000000     2.71820306     1.43647753     0.00000000    -0.16305222     0.19170846
