# total energy = -19517.33991522 eV

CRYSTAL
PRIMVEC
        5.17600016     0.00000000     0.00000000
        0.00000000     5.50899976     0.00000000
        0.00000000     0.00000000     9.26300011
PRIMCOORD
23 1
Ti      1.83664400     3.36578702     3.43574299    -0.00021263    -1.97279507     2.45088546
Ti      3.41674103     2.18969000     5.76559702    -1.15652737     0.79825249    -2.22612339
Ti      4.39069302     2.04778202     1.53032901    -0.31398221     0.38745048    -1.56006756
Ti      0.84704402     3.33807999     7.71948902    -0.64476478     1.26275639     1.59279437
Ti      1.94383103     0.37233800     1.34413599     0.06837054     0.11234208    -1.44034152
Ti      3.24811700     5.13833602     7.91658998     0.39939146    -0.29722324     2.01012596
Ti      0.72257698     0.42902702     5.93693900     0.39692320     1.04163450    -3.28758110
Ti      4.45129102     4.95175199     3.41400301    -0.12763552    -1.08405514     2.77660835
O       1.81226899     1.86425499     4.60147898    -0.31081255     0.10306734     0.72833492
O       3.55026599     3.62669099     4.47376300    -0.06748660    -1.10827674     0.58056328
O       4.99389598     2.80475299     9.14042599     0.38943846    -0.39856819     0.75487025
O       3.53638297     0.68045902     0.37232398     0.86577894     0.54231296    -1.41711314
O       1.80280402     4.79412802     9.07085601    -1.29796483    -1.02463384     0.01053561
O       4.21728503     0.61885999     4.87659299     0.32715603     0.97526221    -0.50284934
O       0.92500601     4.57738898     4.63817102     0.21350706     0.26341347     0.09398183
O       0.19688802     3.43854202     2.51027802    -0.64495093    -1.09130231    -0.66954277
O       5.16711501     2.23036601     6.47268001     0.39034374     0.17951166     0.67815288
O       2.54022501     2.02526601     2.15640301     0.86086531     0.86428719    -0.81814616
O       2.68153401     3.44783903     7.16951199     0.25333449    -1.05443782    -0.35383612
O       0.13407399     0.43318899     2.13112897     0.82760962     2.18878685    -0.94784370
O       5.13361603     5.04840198     7.32346902    -0.86495491    -1.10774375     0.81551077
O       2.48097700     0.71412602     6.74217998    -0.51011863     0.81802608     0.42471837
O       2.72342802     4.79841002     2.49643199     0.94669185    -0.39806760     0.30636274
