# total energy = -4948.20779378 eV

CRYSTAL
PRIMVEC
        4.59800599     0.00000000     0.00000000
       -0.00000651     2.47584968     0.00000000
       -2.29902853    -1.23798055     4.96033682
PRIMCOORD
6 1
Ti     -0.00019680     1.85697257     1.24008401    -0.02495925    -0.02539145    41.02350599
Ti      2.29916741    -0.61910329     3.72025242     0.02495925     0.02539145   -41.02350599
O       0.00004881     0.61895272     0.80799828     0.02424088     0.02480910   -29.95221237
O       2.29892170     0.61891646     4.15233825    -0.02424088    -0.02480910    29.95221237
O      -0.00001878    -0.61896951     3.28816669    -0.00138300     0.00007816    -0.22200327
O       2.29898919     1.85683869     1.67216984     0.00138300    -0.00007816     0.22200327
