# total energy = -19518.00396444 eV

CRYSTAL
PRIMVEC
        7.60600008     0.00000000     0.00000000
        0.00000000     7.60600008     0.00000000
       -1.89786986    -1.89786986     4.85670466
PRIMCOORD
23 1
Ti      3.71657598     6.65571898     1.14369301     0.61705496    -0.87026398     0.56379197
Ti      3.71556102     2.69390199     1.17644998     2.05060697     1.03676122    -0.18281142
Ti     -0.05293302     6.72396601     1.18687102    -0.34084896    -0.72329324    -0.65093440
Ti      0.06527401     2.83826001     1.23058201    -1.69126303     1.16043365    -0.32660376
Ti      5.70963922     2.90837822     3.66267880    -1.02949066    -0.06755139     0.10486711
Ti      5.67883523    -0.82783976     3.57473483    -0.29079368    -0.20666895     0.23438134
Ti      1.95963025     2.80629824     3.66748579     1.49713490    -0.28897076     2.77744448
Ti      1.88746725    -1.04261777     3.53952581     0.56788491     0.92990125     0.04193882
O       3.84503698     4.71733901     0.95415098    -1.22434435    -0.69191497    -0.83493701
O       4.02245498     0.87140798     0.70968400    -0.60451337     1.15669860     0.24841622
O       0.16052100     4.69185499     0.97648898     0.25051656     1.23742562    -0.41015873
O      -0.12276298     1.04830098     0.69853598     0.21445991    -1.28100249    -0.24964495
O       5.67120423     4.72389123     4.09459380     0.60609383     1.13841882    -0.15713920
O       5.71670622     1.06178325     4.08460082     0.87281066    -1.76764848    -0.74017742
O       1.82797423     4.73161621     4.01290079    -0.28619783    -1.01042309    -0.35034893
O       1.93508124     0.82654322     4.08092880    -0.99775835     1.45840610     0.90416142
O       3.82597025     2.79003921     3.66050483    -0.83667173     0.10643574    -1.66764024
O       3.81958324    -0.84632879     3.17732282    -0.02184024    -0.47947184    -0.48799145
O       0.05791120    -0.99042476     3.16737879    -1.55169116     0.29427521     0.16892745
O       5.66724699     6.64445502     1.44448000     0.87837375     0.10762539     1.40540768
O       5.74998798     2.84379299     1.77584101    -0.02266942     0.04301586     0.22974435
O       1.86175399    -0.57775800     1.51355901     0.68026581    -1.05570383     0.68098906
O       1.87574100     2.69235902     1.83573901     0.66288078    -0.22648419    -1.30168239
