# total energy = -19517.87462881 eV

CRYSTAL
PRIMVEC
        7.60600008     0.00000000     0.00000000
        0.00000000     7.60600008     0.00000000
       -1.89786986    -1.89786986     4.85670466
PRIMCOORD
23 1
Ti      3.79583498     6.73600300     1.20242100     0.56043462    -0.88101119     1.82477790
Ti      3.82734399     2.92915700     1.16514998     1.36838558     0.48806858     2.25982234
Ti      0.05325899     6.57532499     1.18731002    -1.03704045    -0.60951083     0.64056874
Ti      0.06840399     2.76995000     1.04640398    -2.52128075     0.58904587    -1.06783148
Ti      5.66928522     2.85736723     3.61890081    -1.28699625    -1.48233974     0.09999307
Ti      5.70614924    -1.05823676     3.65573583    -1.22787037     1.54646359    -1.40674928
Ti      2.04300821     2.96465924     3.63425383     1.29978312    -0.77047480     1.57918680
Ti      1.78927222    -0.81849078     3.71689682     1.13298017    -0.17044441    -0.72222777
O       3.73115100     4.70280198     1.02246501    -0.09087619     1.98735087    -0.40756757
O       3.56355400     1.12666202     0.81322399     0.11285142    -2.72775378    -0.90243286
O      -0.19360098     4.68024199     0.76039601     1.23716542     0.95753934    -0.58475958
O      -0.03827200     0.84774598     0.88201502     0.17360635    -0.08297570    -1.20600467
O       5.66047320     4.74805124     3.78034882     0.26465120    -1.31209254     1.83186335
O       5.91909620     0.93226924     3.98822182     0.48605361    -0.08034443     0.59053248
O       2.00042024     4.76160622     4.13858483    -0.36984510     1.04131465    -0.29809792
O       1.80046521     1.14881423     4.13946083    -0.80219862    -1.85422398    -0.92982129
O       3.84078123     2.50355524     3.30081083    -0.14958144     1.40024284    -0.61610854
O       3.80886423    -0.72282379     3.20140880    -0.91812148    -0.13751499     0.36005691
O      -0.06153580    -1.01519777     3.17950880     1.69237735     0.17156566     0.22038245
O       5.69612102     6.48581202     1.63920199    -0.66407171     0.90745449    -0.42802353
O       5.85338302     2.86780202     1.69062601    -0.44049904    -0.54485810    -0.29643159
O       1.86839400     6.41357202     1.61418001     0.03105817     0.87874168     0.21897014
O       1.64980999     2.75658198     1.90147197     1.14903466     0.68575692    -0.76009782
