# total energy = -19960.50012820 eV

CRYSTAL
PRIMVEC
        5.93400000     0.00000000     0.00000000
        0.00000000     9.29699974     0.00000000
        0.00000000     0.00000000     4.64899994
PRIMCOORD
24 1
Ti      4.48539501     6.85539697     2.20296399    -1.34285477     1.16100983     1.80743477
Ti      4.44367002     2.52808700     2.33942700     1.52479561    -2.37066675    -0.16080405
Ti      1.47908502     6.88268299     2.17745802     1.48173013     0.73686841     1.67292900
Ti      1.48719900     2.33763902     2.42012299    -0.74091327    -1.60574425     0.39150202
Ti      2.99897199     4.61802498     0.07754098    -0.92155468     0.48482590    -1.05122317
Ti      2.95839002     0.01108102     0.07461098     0.46974304    -0.14516968    -0.89863688
Ti      0.01596099     4.65371899     4.55261502     0.56113627    -0.49374018    -0.04509639
Ti      5.92728998     9.27555701     0.11061000    -0.46729149     0.26850992    -1.31565712
O       4.43095299     5.58861501     0.85941598     0.27192666    -0.61504693    -0.71665259
O       4.39936000     0.91416000     1.07279098     0.32511149    -0.59791746    -0.57954127
O       1.45523098     5.53589303     0.79050101     0.08947751     0.38457418     0.42577458
O       1.44533002     0.88134900     1.06623702     0.22237891    -0.09472410    -0.39858387
O       4.47348201     8.44876100     3.75749302     0.01279536     0.10920122     0.34205172
O       4.37822201     3.82056502     3.71099898     0.14615493     0.11681529     0.14723865
O       1.49218602     8.35265701     3.75247901    -0.39183550     0.72140733     0.44115107
O       1.46745201     3.78871199     3.70838998     0.43918675     0.04507711     0.11507105
O       2.94386998     6.06596400     3.18852101     0.32129391    -0.38301352     0.05817946
O       2.90886099     1.49358601     3.40900101    -0.14165858     0.62981689    -0.90901643
O       0.00624101     5.89122301     3.04736202    -0.07915555     0.62811122     0.46794506
O       5.89906399     1.58889697     3.31537400     0.45965505    -0.09637218    -0.17095940
O       3.00543600     7.70440202     1.35035699    -0.42984824     1.06657241    -0.27190454
O       3.03548998     3.17998998     1.33952500    -1.27453102     0.77817577     0.02672740
O       0.03176201     7.84733502     1.39357702    -0.41325999    -0.14887207     0.24494009
O       5.90657100     3.35323499     1.37855198    -0.12248277    -0.57969810     0.37713135
