# total energy = -19960.12156476 eV

CRYSTAL
PRIMVEC
        5.93400000     0.00000000     0.00000000
        0.00000000     9.29699974     0.00000000
        0.00000000     0.00000000     4.64899994
PRIMCOORD
24 1
Ti      4.43695502     6.81981499     2.14310198     0.53964339    -0.18719952     0.05633572
Ti      4.44278402     2.33797198     2.26786298    -1.13826019     2.27068243    -0.25776296
Ti      1.48354900     7.01240498     2.40055100    -0.44303106    -0.38609062    -0.60685230
Ti      1.41345000     2.25423899     2.43941198     1.07410574     1.08690264    -1.11695216
Ti      2.92601898     4.69215599     4.56963098     0.57076892    -0.49675994     1.52233841
Ti      2.99761698     0.13319698     0.10399201     0.45027978    -0.60047005    -0.89447272
Ti      0.05480800     4.58582100     4.53587598    -0.87764356     0.05570271     0.78999359
Ti      0.01169699     0.03565797     0.02914899    -0.67955902    -0.83227489    -0.24745823
O       4.51168702     5.52177902     0.80547498    -0.59426495     0.20583642     0.78797579
O       4.44626902     0.87125102     1.08131698     0.33761991    -0.31151652    -0.80498159
O       1.55179302     5.60376001     0.85338002    -0.12845648    -0.20683478    -0.17520506
O       1.47857198     0.82185101     1.20849198    -0.32196163    -0.69455498    -1.57731607
O       4.36061200     8.51861700     3.84800302     0.49870395    -0.09395894     0.03428259
O       4.53928600     3.66819399     3.73307202    -0.16141623     0.88214145     0.21220608
O       1.50163501     8.62181101     3.73863399    -0.23360204    -0.93103331    -0.12644973
O       1.52978999     3.78344498     3.72998797    -0.21085676    -0.68587570    -0.31778693
O       2.93239001     5.93286698     3.07617303     0.00928631     0.41542383     0.74047541
O       3.07057602     1.53363801     3.21638399    -1.02245277    -1.02902040     1.85206477
O       5.85760602     6.11462302     3.31560001     0.65095857     0.36812709    -0.85554904
O       5.82761299     1.47684501     3.30408998     0.91930779    -0.57353722     0.90130800
O       2.93834098     7.76248600     1.47514202     0.05210574     1.48876904    -0.68750656
O       2.88945098     3.31123398     1.45550700     0.94920870    -0.65148719    -0.35239630
O       5.90348198     7.67612798     1.28168698     0.51832456     1.23807148     0.57344441
O       0.15888298     3.21864903     1.36101902    -0.75880893    -0.33104277     0.55026436
