# total energy = -19072.00740695 eV

CRYSTAL
PRIMVEC
        5.17600016     0.00000000     0.00000000
        0.00000000     5.50899976     0.00000000
        0.00000000     0.00000000     9.26300011
PRIMCOORD
22 1
Ti      1.74449398     3.52226998     3.22184399    -0.95972092     1.02032493     0.43665678
Ti      3.75255500     2.39508100     5.79312201     0.21286711     0.34684400     1.99404576
Ti      4.22394298     2.26208399     1.46186099     1.49869427    -0.90884391    -0.16837158
Ti      1.35380400     2.52412500     7.75688598    -2.45577750    -0.24370313     0.13224834
Ti      1.68154602     0.78330700     1.39648400    -0.29189642    -0.94090841    -0.69257780
Ti      3.17325303     0.05480398     7.95866899     1.44941161    -0.09854579     0.98361367
Ti      0.66047099     5.22233799     6.50692899     0.24792180     0.32620909    -1.14484221
Ti      4.37286901     5.06461502     3.57068800     0.03845935     0.83568057     0.72332564
O       3.30355102     3.33004798     4.30374100     0.84253693     0.96769108     0.47170479
O       1.02702102     2.14909401     0.34578198    -0.52399102     0.72618676    -0.85583160
O       5.07641001     3.60170297     6.96115601    -1.31676629    -1.25077530    -0.76863929
O       3.48209098     0.69303302     0.50948799    -0.11375053     0.07971117    -1.87234846
O       1.44726300     4.99019899     8.19144798    -0.12168162    -0.83090603     2.93587720
O       4.02822799     0.81393600     5.02827700     0.78797733    -1.79281059    -1.70080491
O       0.84285601     4.67939901     4.52243498    -0.31398941    -0.59254077     0.98756238
O       4.99594199     3.87240598     2.24988497     1.20608026    -0.92276541    -0.80742234
O       4.89620102     1.06660400     7.39462801    -0.53693910     0.80324301    -0.35480877
O       2.57632198     1.99703302     2.40634999     0.41736682     1.11897588     0.79464678
O       2.49870698     3.48194402     6.75399799     1.28854405     1.57695560    -0.38679716
O       0.09726998     1.10300002     2.52223298    -0.58810510    -0.78492003     0.64171442
O       2.27247597     1.14114899     6.68468598    -0.30368468     0.29418008    -0.54300151
O       2.63442501     4.91259001     2.53950998    -0.46355670     0.27071695    -0.80594987
