# total energy = -19959.94185403 eV

CRYSTAL
PRIMVEC
        7.60600008     0.00000000     0.00000000
        0.00000000     7.60600008     0.00000000
       -1.89786986    -1.89786986     4.85670466
PRIMCOORD
24 1
Ti      3.94966898     6.47703302     1.23812099    -2.41398883     1.97916653    -0.91401157
Ti      3.77163301     2.76694301     1.25099100    -0.11456763    -1.92892510    -1.58995227
Ti     -0.00823601     6.72937500     1.12445800     2.16015015    -0.06860349     2.22935964
Ti     -0.03461200     2.97085903     1.23643799    -0.05949072     0.17574422     0.09104742
Ti      5.59612123     2.84862723     3.55086783     1.93014303     0.04193137     0.91736815
Ti      5.70306123    -0.88492279     3.66652179     0.47687682    -0.18246740    -0.10123465
Ti      1.90523220     2.75160422     3.58338079    -1.92931770     0.37278978     0.80240843
Ti      1.98760520    -0.96843480     3.63517280    -0.91518451    -0.41965793    -0.31616456
O       3.79216598     4.54351402     0.86565598     0.58292870     2.41863404    -0.78478377
O       3.82241698     0.82146201     0.85251000     0.31740949     2.01484008     0.08426845
O      -0.06170699     4.84961998     0.85531099    -0.00847693    -2.15320816    -1.06097691
O      -0.16542102     0.97382801     0.89542098     0.90786458     0.98573406    -1.24126299
O       5.55110724     4.81881922     4.10775079     0.20910790    -0.10423410    -1.32621073
O       5.57099822     1.00885722     3.98234382     0.85533769     0.43509227     1.07990358
O       1.89254020     4.84510123     4.09231580     1.02681131    -3.35710787     0.54845070
O       1.83229523     0.91721922     4.00268481     0.27321864     1.45195572     0.69460820
O       3.78746721     2.92168825     3.19268881    -0.54685790    -0.09696508     0.06728734
O       3.81498125    -0.63408479     3.20051883     2.05500099    -1.34103288    -0.20657459
O       0.03650323     2.97717021     3.31766481    -1.28157944    -0.17115197    -0.84910482
O       0.18969322    -0.94960778     3.25242583    -3.28620530     0.34223633    -0.26006461
O       5.79519999     6.49295501     1.68260802    -0.88585747     0.16864900     0.75238220
O       5.69323398     2.63542098     1.58023403    -0.31100230     1.10896503     1.24904084
O       2.00050602     6.68994500     1.61194502    -0.33459372    -0.72935410    -0.31205491
O       1.78929799     2.96608400     1.59805201     1.29227344    -0.94302957     0.44627220
