# total energy = -4939.92940734 eV

CRYSTAL
PRIMVEC
        5.48413961     0.00000000     0.00000000
       -0.00000716     2.35034570     0.00000000
       -2.74210126    -1.17525788     5.95151510
PRIMCOORD
6 1
Ti     -0.00023433     1.76283226     1.48787872    -0.02826466    -0.02330757    50.99027513
Ti      2.74226525    -0.58774438     4.46363627     0.02826466     0.02330757   -50.99027513
O       0.00005827     0.58757202     0.96945317     0.02639470     0.02208167   -44.59068772
O       2.74197248     0.58751580     4.98206188    -0.02639470    -0.02208167    44.59068772
O      -0.00002293    -0.58761456     3.94521072    -0.00145190     0.00024503    -1.20797542
O       2.74205362     1.76270233     2.00630433     0.00145190    -0.00024503     1.20797542
