# total energy = -4982.39310579 eV

CRYSTAL
PRIMVEC
        3.62470336     0.00000000     0.00000000
        0.00000000     2.73451015     0.00000000
        0.00000000    -0.00007230     4.79423156
PRIMCOORD
6 1
Ti      1.81235163     1.36721878     2.39711583     0.00000000     0.00000000     0.00000000
Ti      0.00000000     0.00000000     0.00000000     0.00000000     0.00000000     0.00000000
O       1.81235163     0.53290161     0.93432514     0.00000000    -3.25196437    -3.16793734
O       1.81235163     2.20153596     3.85990651     0.00000000     3.25196437     3.16793734
O       0.00000000     0.83428843     3.33144196     0.00000000     3.25114136    -3.16311626
O       0.00000000     1.90014914     1.46278970     0.00000000    -3.25114136     3.16311626
