# total energy = -19920.70000175 eV

CRYSTAL
PRIMVEC
        4.93492106     0.00000000     0.00000000
        2.47166731     4.63432602     0.00000000
        0.00000000     0.00000000     9.13994631
PRIMCOORD
24 1
Ti      3.25337931     2.74629731     3.39085491     5.75777015    -5.42778771     1.24669882
Ti      4.15320919     1.88802883     5.74909150    -5.75777015     5.42778771    -1.24669882
Ti      5.26301122     1.88803048     1.17908178   -12.08479895     3.51554779     2.55066024
Ti      2.14357743     2.74629587     7.96086468    12.08479895    -3.51554779    -2.55066024
Ti      2.01754584     0.42913446     1.17911844     5.75719474    -5.42747120    -1.24555725
Ti      5.38904275     4.20519186     7.96082807    -5.75719474     5.42747120     1.24555725
Ti      0.90774373     0.42913267     5.74905484    12.08505940    -3.51635923     2.54958886
Ti      6.49884485     4.20519359     3.39089152   -12.08505940     3.51635923    -2.54958886
O       2.43224980     1.63182501     4.66404466    -1.62574333     0.08575044    -1.53823246
O       4.97433876     3.00250116     4.47590175     1.62574333    -0.08575044     1.53823246
O       1.77588180     1.63184366     0.09410087     2.62626613     0.48090574    -2.91350525
O       5.63070682     3.00248255     9.04584524    -2.62626613    -0.48090574     2.91350525
O       3.73850520     0.68533813     0.09407121     1.62545048    -0.08628471    -1.53840318
O       3.66808334     3.94898799     9.04587491    -1.62545048     0.08628471     1.53840318
O       4.39487326     0.68531951     4.66407428    -2.62654406    -0.48009456    -2.91313347
O       3.01171525     3.94900667     4.47587209     2.62654406     0.48009456     2.91313347
O       1.68270524     2.81885976     2.46892752     0.28220876    -4.68906707    -3.90296279
O       5.72388331     1.81546641     6.67101884    -0.28220876     4.68906707     3.90296279
O       3.61500365     1.81542313     2.10107471     2.78986959    -3.28295774    -4.97710375
O       3.79158491     2.81890304     7.03887150    -2.78986959     3.28295774     4.97710375
O       0.44687169     0.50169673     2.10104554     0.28183543    -4.69032743     3.90443397
O       6.95971686     4.13262940     7.03890068    -0.28183543     4.69032743    -3.90443397
O       2.55575135     0.50174001     6.67104797    -2.79054245     3.28305030    -4.97885442
O       4.85083719     4.13258612     2.46889835     2.79054245    -3.28305030     4.97885442
