# total energy = -19015.40093205 eV

CRYSTAL
PRIMVEC
        7.60600008     0.00000000     0.00000000
        0.00000000     7.60600008     0.00000000
       -1.89786986    -1.89786986     4.85670466
PRIMCOORD
22 1
Ti      4.50828499     6.19275302     0.92995498     2.54123328    -5.78030819    -2.34898206
Ti      4.70694824     3.44191520     3.41734884   -10.11601351     0.60523739    -2.46354326
Ti      0.89780498     6.04196100     0.42933902    -1.86765903     8.27915940     3.29907162
Ti     -0.05846498     2.94490198     0.50358100    -7.77586448    -9.07270266    11.94111845
Ti     -1.17628980     2.39040720     4.32029980   -33.83407822    27.05743967    28.59208724
Ti     -1.21927376     1.36367422     3.25090481    -9.44652962   -30.82875061   -41.18854645
Ti      0.23941021     2.35271523     3.90762981    51.53842682     5.85197643    -3.97276183
Ti      0.49747223    -0.91043078     3.89699579     1.34076652     2.30208743     4.37163316
O       4.31412198     4.47785402     2.09572702    -1.61417953     5.25904537    -3.63454517
O       3.84011997     0.20425602     0.40142402     2.02069937     3.18989920     1.25838114
O       1.05750200     4.37769098     1.22251200     2.76795864     2.89872089     1.94267150
O       0.47180798     1.12617999     0.24288601     1.03737649    -3.01814662     5.37896912
O       6.31130121     3.95824821     3.13406179     3.57103119     3.76245580     2.12853765
O       4.44893623     1.60060825     3.18577283     1.94246350    -2.01635781     1.16839019
O       2.69618402     6.86754397     0.01755202    -2.65346815    -3.51841251    -1.01706400
O       1.08418623     0.94800025     4.55269979    -0.09513291    -5.82697399    -0.50788485
O       2.80022725     2.89455124     3.87251181    -1.69369684     2.60889652     2.78233986
O       0.60674723     3.19483822     2.46214083     0.60630543    -2.79036273    -3.00987049
O       6.40154101     6.18352200     0.22247501     0.55859731     0.74685972     2.70505478
O       5.94949003     2.60405003     1.06256400     0.84276756    -0.46807208    -0.33691825
O       0.78223500     6.50726100     2.28994999     0.71148184     0.82607107    -1.89706757
O      -1.42540777    -0.52959377     3.79997881    -0.38248542    -0.06776145    -5.19107078
