# total energy = -4977.12208245 eV

CRYSTAL
PRIMVEC
        4.84901397     0.00000000     0.00000000
       -0.00001079     4.84901397     0.00000000
       -2.42454501    -2.42455041     6.18842026
PRIMCOORD
6 1
Ti     -0.00021354     3.63694414     1.54710490    -0.00343962     0.00343962     0.00000000
Ti      2.42467156    -1.21248071     4.64131496     0.00343962    -0.00343962     0.00000000
O       0.00004844     1.21224525     1.00804302    -0.00040958    -0.00247649    -1.32585926
O       2.42440945     1.21221803     5.18037690     0.00040958     0.00247649     1.32585926
O      -0.00002739    -1.21222420     4.10225309    -0.00247649    -0.00040958    -1.32585926
O       2.42448521     3.63668743     2.08616684     0.00247649     0.00040958     1.32585926
