# total energy = -19956.89104496 eV

CRYSTAL
PRIMVEC
        5.93400000     0.00000000     0.00000000
        0.00000000     9.29699974     0.00000000
        0.00000000     0.00000000     4.64899994
PRIMCOORD
24 1
Ti      4.36589398     7.10472699     2.32951700     2.20072577     0.72714372    -2.04785974
Ti      4.41702801     2.25765801     2.33453598     1.09502502     2.68169939    -1.23138018
Ti      1.53056503     6.75829099     2.62348501    -2.02062044     0.77541492    -2.55717516
Ti      1.45296700     2.36582602     2.37351300    -0.30029879     0.76433552    -1.75051233
Ti      3.02077700     4.50165001     0.02376498     1.14109149     3.24658587     1.13291203
Ti      2.88141902     0.25064401     4.47507102    -1.53265676    -4.60321970     2.44352413
Ti      0.06587399     4.50203599     4.61967897    -0.93568264     3.87944207     1.68433673
Ti      5.77631799     0.28656001     4.57522502     0.67320736    -3.37823617     2.99891373
O       4.47684599     5.36327699     0.81269301     0.15668180     0.54972186     0.86099052
O       4.29427899     1.20993198     0.67573501     1.50978910    -0.46457769     1.04105008
O       1.53471499     5.38960499     1.05009298    -0.04398054    -0.41289927    -1.21880260
O       1.55471398     1.11077300     0.89211998    -0.11559247    -0.97479762    -1.39168209
O       4.56360598     8.73531598     3.61022098    -1.20441187    -2.64186964     0.58225070
O       4.65410301     3.48166800     3.88399300    -1.63043431    -0.89872044    -2.10147986
O       1.68089201     8.24653898     3.66653100     0.07937847     2.92794740     1.85468215
O       1.53882702     3.70118099     3.79633902    -0.06409583    -1.89501069    -2.00041490
O       3.06446202     5.95469501     3.26818197     0.33888129    -0.58209489     0.38625646
O       3.11377398     1.26254701     3.05439098    -2.19040998     1.79974383    -1.49377395
O       5.81374902     6.24683700     3.39067899     0.93593512    -1.98685567     0.38182362
O       5.89898498     1.21743899     3.05876198     1.61919035     2.38994823    -1.56365245
O       2.90229099     7.80074297     1.44827997     1.08195069     0.21458486    -0.01299565
O       2.94317099     3.31456600     1.43613800     0.32953481    -2.28496157     2.40765183
O       0.03589198     7.76777200     1.39400099    -1.38642573     0.80384156     0.07747379
O       0.06224601     3.16716500     1.39891398     0.26321781    -0.63716562     1.51786417
