# total energy = -19518.18748626 eV

CRYSTAL
PRIMVEC
        5.93400000     0.00000000     0.00000000
        0.00000000     9.29699974     0.00000000
        0.00000000     0.00000000     4.64899994
PRIMCOORD
23 1
Ti      4.50534801     6.96580399     2.29890801     0.44387541    -0.28363006     0.10401762
Ti      4.52704898     2.29973998     2.36960101    -0.03904864    -0.26634093     0.18903503
Ti      1.46928302     7.10149101     2.28948098    -0.66154252    -0.18954591    -0.47030945
Ti      1.52340298     2.27608401     2.24208998    -0.39736928    -0.13073267     0.50862327
Ti      3.01933002     4.49356201     0.05698101    -0.69774443     0.28718153     0.28498452
Ti      2.92295801     9.22595399     4.48019600     0.39247467    -0.04914254     0.68939477
Ti      0.02858499     4.65182099     0.06545198     0.74519879     0.80992479    -0.41543258
Ti      5.83147900     0.08864698     0.05680501     0.55982244    -0.41942113    -0.52311684
O       4.37539499     5.61231098     0.86874701    -0.03228587    -0.18059487     0.07650500
O       4.47331701     0.92885498     0.87490901    -0.89579299     0.48802513     0.65578530
O       1.40655302     5.63165500     0.94846799     0.62125486    -0.25112720     0.00242712
O       1.40536698     0.90359598     0.90414299     0.82322897     0.42482842     0.61630523
O       4.47110802     8.32544502     3.73860399    -0.43322153     0.40032322     0.37271599
O       4.43909999     3.66986899     3.79035800    -0.27025518     0.58785442    -0.08143895
O       1.44112200     8.58338099     3.65227300    -0.23805262    -1.81335037    -0.33602814
O       1.49749901     3.76851499     3.79613100     0.00278039    -0.08712778    -0.50310285
O       3.02374998     1.32077101     3.21056198    -0.46469544     0.78941690    -0.44804832
O       5.87763501     6.09107198     3.26265498     0.24049028    -0.61973714     0.35618868
O       0.04485502     1.45882801     3.28929202    -0.26191195     0.03749724    -0.34305754
O       2.96317601     7.86093900     1.44400401    -0.40504326    -0.15824220     0.21753469
O       2.98140198     3.27573900     1.41028600    -0.08406791    -0.78129683     0.89695410
O       5.88313601     7.83236899     1.50151600     0.34023138     1.41487294    -1.41995421
O       5.86912001     3.30193502     1.50563099     0.71167442    -0.00963496    -0.42998271
