# total energy = -19958.17624695 eV

CRYSTAL
PRIMVEC
        5.93400000     0.00000000     0.00000000
        0.00000000     9.29699974     0.00000000
        0.00000000     0.00000000     4.64899994
PRIMCOORD
24 1
Ti      4.45794198     6.62733698     2.26692797     0.00109683     2.32145890     0.91751290
Ti      4.44325498     2.48921200     2.28694299     0.86353026    -2.47666129     1.52272664
Ti      1.44747901     6.78281799     1.98210599     0.29600582     2.25149171     1.87490543
Ti      1.56741698     2.49668901     2.30378401    -0.69794344    -2.08444039     1.36156032
Ti      3.02823697     4.70393399     4.48216898    -2.07533045    -1.39155739    -0.12408380
Ti      3.00034002     9.21711599     0.27932701    -1.20100310    -1.38640902    -1.44367110
Ti      5.86996702     4.61693699     0.05186498     2.09270417    -0.33379488    -1.20579949
Ti      5.90235298     0.01225601     0.25386702     1.13926035    -0.75307742    -2.36550937
O       4.39670300     5.73114699     0.60113800     0.00757627     0.61234881     0.95431723
O       4.46216598     1.02810302     1.12702001    -0.43254790    -1.23090710    -1.95929061
O       1.43333601     5.77735697     0.50472497     0.54236876    -0.59544714     0.52873728
O       1.49975098     0.89122498     1.14132499     0.29572531     0.25560632    -1.01382903
O       4.51928902     8.35307898     3.97294701    -0.85402051     0.81213286     0.76492224
O       4.51677802     3.85296898     3.67594998    -0.82173413    -0.06038341     0.32649963
O       1.45017400     8.25495798     3.97593601     0.93536536     1.96205429     1.22193343
O       1.33014798     3.69026698     3.79933300     1.18454572     0.50067213    -0.16480932
O       2.86845698     5.79316302     2.96682902     0.47071363     0.42667936    -0.22306154
O       2.97393498     1.56522598     3.15489603    -0.16508520     0.84171110     0.49419115
O       0.03744501     5.96738299     3.05973498    -0.04618886    -0.68375043    -0.33135053
O       5.90209802     1.53144399     3.23686003    -0.12632503     0.66769646     0.00352370
O       3.05012697     7.88103700     1.71973002    -0.30938507     0.54261121    -1.19489210
O       2.98513797     3.62068001     1.44820901    -0.41241616    -1.23614341    -0.16663017
O       5.91346099     7.81613902     1.55307802    -0.87477961     0.71102933    -0.19160691
O       5.91331499     3.34707600     1.34754902     0.18786672     0.32707941     0.41370376
