# total energy = -19961.78761391 eV

CRYSTAL
PRIMVEC
        7.60600008     0.00000000     0.00000000
        0.00000000     7.60600008     0.00000000
       -1.89786986    -1.89786986     4.85670466
PRIMCOORD
24 1
Ti      3.87157602     6.62602700     1.19977903    -1.06925381    -0.15275829     0.13786235
Ti      3.81694598     2.78132499     1.19766501    -0.08513877     0.46023921     0.00694815
Ti     -0.03118701     6.63888199     1.18722202     1.04060477     1.35086916     0.17151656
Ti     -0.03135799     2.91555900     1.24878301     0.07825695    -1.08693375     0.00710010
Ti      5.67299221     2.84902824     3.67774680     0.85935633     0.15478818    -0.45782854
Ti      5.70307520    -0.92472079     3.62885580     0.18367428    -0.18071854     0.97923071
Ti      1.94875825     2.83053821     3.65914183    -0.79231273    -0.20879294    -0.63536148
Ti      1.92778124    -0.97296376     3.66157483    -0.27831251     0.34596726    -1.62139919
O       3.84092199     4.68464802     0.71585802     0.05680700     0.45772081     1.27376637
O       3.81486102     0.92978099     0.71035902     0.05902047    -0.27735657     0.75595809
O      -0.13484802     4.79105700     0.81073902     0.41029114    -0.79221426    -0.19938090
O      -0.04908198     0.93698902     0.79806999     0.25703328     0.63624105    -0.47282013
O       5.54222320     4.79272824     4.01773779     0.24057204    -0.28351514     0.18040641
O       5.62682822     0.97827622     4.03258581     0.59559010     0.03734452     0.85489906
O       1.96023922     4.69493121     4.08228582     0.28356424     0.80257658    -0.54621667
O       1.85423624     0.91221522     4.09365880     0.01907759     0.05171673    -0.74158613
O       3.85728024     2.80187723     3.11553079    -1.52764928     0.03008757     0.86761754
O       3.86392723    -0.70980979     3.15921279    -1.05352508    -0.91633354     0.04270373
O      -0.03399477     2.92131624     3.31167579     0.26502581    -0.05188411    -0.42690124
O      -0.01737977    -1.02361475     3.20747682     0.38804415     0.14888004    -0.00998360
O       5.71596400     6.65814002     1.55088601    -0.41858809    -0.03475130     0.53725714
O       5.72806999     2.77127401     1.66320299    -0.41371405     0.19741220    -0.40068009
O       1.91616500     6.72569902     1.61492498     0.08945514    -0.63568081     0.15439429
O       1.83160502     2.85514098     1.68290002     0.81212077    -0.05290381    -0.45750252
