# total energy = -4990.57553763 eV

CRYSTAL
PRIMVEC
        3.84237977     0.00000000     0.00000000
        0.19199077     3.83758021     0.00000000
       -2.01721938    -1.91882255     4.90526529
PRIMCOORD
6 1
Ti      0.14383786     2.87833088     1.22631619    -0.00011004     0.00011004    -0.00000000
Ti      1.87331281    -0.95957369     3.67894884     0.00011004    -0.00011004     0.00000000
O       0.04803811     0.95938877     0.79902761    -0.00027639    -0.00030339    -0.17555962
O       1.96911239     0.95936831     4.10623747     0.00027639     0.00030339     0.17555962
O      -0.04801916    -0.95937075     3.25166026    -0.00030339    -0.00027639    -0.17555962
O       2.06516967     2.87812778     1.65360488     0.00030339     0.00027639     0.17555962
