# total energy = -19074.04367858 eV

CRYSTAL
PRIMVEC
        5.17600016     0.00000000     0.00000000
        0.00000000     5.50899976     0.00000000
        0.00000000     0.00000000     9.26300011
PRIMCOORD
22 1
Ti      1.75166798     3.39201099     3.20078400     1.35031740     0.68089907     0.03315927
Ti      3.61362798     2.28938901     5.98529702    -0.27084576    -0.22090669    -0.18926334
Ti      4.40325601     2.12053400     1.23872298     0.00785755     0.49397518    -1.16220719
Ti      0.77977998     3.29271802     8.16433802     0.01985252    -0.07685416     0.69838438
Ti      1.77934099     0.46510801     1.33159703     0.39417803     0.79495197    -1.63865747
Ti      3.22618499     5.07379799     8.04341599     0.41432751    -0.59444441     0.10155450
Ti      0.52113301     0.29104802     6.00140099     2.14488704     0.98199259    -1.19520500
Ti      4.35342799     4.94924300     3.42466598     0.71648033    -0.55055207     0.80497105
O       3.34019998     3.38344699     4.44247201     0.30054150     0.34846868     1.16627854
O       0.96106098     2.03670301     0.34602900    -0.55315248     0.09455492    -1.49839346
O       4.33271298     3.88112100     9.04155800     0.81517293    -1.27273048     0.27317467
O       3.44007298     0.85626203     0.11999602     0.39966631     1.18107730    -0.16699578
O       1.54427601     4.81087299     9.14213301    -0.05743641     0.21027852    -0.82077511
O       4.63021002     0.99004899     4.64953801    -1.86743123    -0.32941809    -0.03849946
O       0.96994401     4.74145398     4.27948097    -0.28510768    -0.67313306     1.53211940
O       0.16468202     3.52806701     2.27419702    -1.07616802    -0.49322133     0.76624739
O       0.32387500     2.29933701     6.46896301    -0.99039008    -0.31364025     1.27351569
O       2.75474298     2.00722498     2.27016500    -0.18703291    -0.76801322     0.35739941
O       2.63266798     3.31459003     7.48726901    -0.75307125    -0.62934047    -2.15696532
O       0.06315598     0.58935698     2.08526402    -0.33603457     0.45343478     0.52827165
O       2.46673800     0.60142799     6.42331401    -0.19804392     0.39564022     0.41077296
O       2.80162798     4.65691702     2.20977397     0.01143267     0.28698098     0.92111348
