# total energy = -19896.72426664 eV

CRYSTAL
PRIMVEC
        8.73149473     0.00000000     0.00000000
        0.00002859     3.98269310     0.00000000
        0.00000000     0.00000000    13.28865254
PRIMCOORD
24 1
Ti      3.16476368     2.36014026     4.92999532     0.22117743    -0.30765549     2.79311947
Ti      5.56675926     1.62255290     8.35865741    -0.22117743     0.30765549    -2.79311947
Ti      7.53036160     1.62255426     1.71427790     0.21557474     0.30794782    -2.79388257
Ti      1.20116134     2.36013903    11.57437496    -0.21557474    -0.30794782     2.79388257
Ti      3.16474958     0.36879377     1.71433121     0.22117743    -0.30765549    -2.79311947
Ti      5.56677336     3.61389945    11.57432165    -0.22117743     0.30765549     2.79311947
Ti      1.20114723     0.36879229     8.35860410    -0.21557474    -0.30794782    -2.79388257
Ti      7.53037571     3.61390094     4.93004862     0.21557474     0.30794782     2.79388257
O       2.76358318     1.40237393     6.78109772     1.34489108     1.00709223    -2.34057609
O       5.96793976     2.58031917     6.50755501    -1.34489108    -1.00709223     2.34057609
O       1.60223517     1.40239000     0.13681411    -1.34427685     1.00702255    -2.34131863
O       7.12928783     2.58030317    13.15183823     1.34427685    -1.00702255     2.34131863
O       5.96792572     0.58897262     0.13677101    -1.34489108    -1.00709223    -2.34057609
O       2.76359722     3.39372054    13.15188134     1.34489108     1.00709223     2.34057609
O       7.12927379     0.58895655     6.78114083     1.34427685    -1.00702255    -2.34131863
O       1.60224908     3.39373661     6.50751190    -1.34427685     1.00702255     2.34131863
O       0.31725266     2.42249969     3.58959660    -2.07001264     0.61317131     0.03686243
O       8.41427028     1.56019341     9.69905613     2.07001264    -0.61317131    -0.03686243
O       4.68301113     1.56015630     3.05477201    -2.07075054    -0.61333534    -0.03665957
O       4.04851181     2.42253686    10.23388053     2.07075054     0.61333534     0.03665957
O       0.31723862     0.43115314     3.05472960    -2.07001264     0.61317131    -0.03686243
O       8.41428433     3.55154002    10.23392294     2.07001264    -0.61317131     0.03686243
O       4.04849777     0.43119025     9.69909847     2.07075054     0.61333534    -0.03665957
O       4.68302517     3.55150291     3.58955420    -2.07075054    -0.61333534     0.03665957
