# total energy = -19516.25193993 eV

CRYSTAL
PRIMVEC
        5.17600016     0.00000000     0.00000000
        0.00000000     5.50899976     0.00000000
        0.00000000     0.00000000     9.26300011
PRIMCOORD
23 1
Ti      1.90693499     3.13933001     3.32087300    -0.73771816     0.97198946     2.36847951
Ti      3.42824502     2.24150598     5.86299299     0.11647410     0.59936114    -2.09021920
Ti      4.25368501     2.19209400     1.50730298     0.41177569    -0.80884210    -2.44900907
Ti      0.86534202     3.44303600     7.79458801    -1.96790792     0.72001611     2.62940441
Ti      1.90772701     0.01719202     1.53605900    -0.59550731     2.03955019    -2.48194979
Ti      3.29497300     5.22342402     7.90716602    -0.04500589     0.61888790     3.29102175
Ti      0.76287298     0.69821398     5.93526701    -1.22977812    -1.42613823    -3.54409502
Ti      4.44660499     4.87310201     3.35524502     1.23663552     0.63463900     1.78250329
O       1.76845999     2.02618302     4.85573002    -0.91582034    -0.39739525    -0.31295094
O       3.57577699     3.63174601     4.58006302    -0.31533178     0.00103873    -0.60563694
O       5.03007498     3.13463298     0.08700902    -0.43213087    -0.90221020    -0.43795082
O       3.82211498     0.70342399     0.17086699    -1.16384602    -0.06850527    -0.89658694
O       1.73823201     4.82974700     9.07981799    -0.05807404    -0.02954199    -0.78886462
O       4.29526803     0.81444401     4.73253798    -0.61296639     0.91490117     0.63438780
O       0.93558802     4.83887001     4.19316402     1.83933497    -0.58303128     0.96184851
O       0.14041300     3.31650798     2.55331002     1.12464979    -0.73690569     0.50557883
O       5.08120298     1.99990900     6.94662703    -0.60071559     0.59845791    -0.15156376
O       2.32435101     1.84073200     2.08589898     1.83040887    -1.10784300    -0.64607630
O       2.58398902     3.49023798     7.14496298     0.90970626    -0.08230104    -0.06661319
O       0.22049599     0.57644701     2.06768898    -1.63278352     0.47414142     0.11829599
O       4.97932101     4.81114102     7.10994298     0.72387199     0.03950707    -0.77143614
O       2.33920300     0.90353798     6.88153701     1.20673640    -0.53185088     0.87595975
O       3.03300100     4.19975598     1.95480098     0.90799236    -0.93792541     2.07547237
