# total energy = -19519.21214104 eV

CRYSTAL
PRIMVEC
        7.60600008     0.00000000     0.00000000
        0.00000000     7.60600008     0.00000000
       -1.89786986    -1.89786986     4.85670466
PRIMCOORD
23 1
Ti      3.79013902     6.66249800     1.22667700     0.69514633     0.19629943     0.05330130
Ti      3.81295302     2.89273500     1.16627798     0.59954754    -0.47047272     1.77315630
Ti      0.01495301     6.67950200     1.20692101    -0.71471526    -1.02724968     0.40953343
Ti      0.00036201     2.80045400     1.05850701    -1.44483401     1.09775167    -0.44880859
Ti      5.68062321     2.89182222     3.65672979    -1.01448981    -1.34185667     0.48355809
Ti      5.72069024    -1.04277780     3.61456680    -0.36001088     1.18569012    -0.73413816
Ti      2.04104724     2.87524522     3.66297381     0.73607600    -0.02827649     0.52206243
Ti      1.88223823    -0.92633478     3.66518779     0.31992866    -0.04642720    -0.03065939
O       3.86821902     4.69008802     0.92477497    -0.48365579     1.41919856    -0.50181782
O       3.70541600     1.04460399     0.81930900     0.22522666    -1.36247821    -0.64958945
O      -0.22801697     4.73893298     0.78658600     1.27308143     0.34920453    -0.05828153
O      -0.16388402     0.93015501     0.78080299     0.50523816    -0.69511934    -0.35485016
O       5.69167423     4.72022122     4.03642679     0.63701958     0.56261363     0.07965975
O       5.79357922     0.95299822     4.01110180     0.49838539    -0.24792514     0.04980332
O       1.92679321     4.75227021     4.08528382    -0.30753079     0.18455462    -0.03105534
O       1.74148523     1.04961720     4.06185784    -0.04286236    -0.77648964    -0.02851046
O       3.85670624     2.71288321     3.27025683    -1.01688556     0.48150841    -0.53894096
O       3.83838321    -0.90209677     3.19321883    -0.82388383     0.08615050     0.62035857
O       0.00859421    -0.91675879     3.19013283     0.21027029    -0.29658843     0.10463751
O       5.68013600     6.56772098     1.60859099     0.44840107     0.49791000     0.25080324
O       5.81193601     2.83546400     1.75217297    -0.04186477    -0.13192824    -0.83643236
O       1.93769299     6.60691402     1.60897602    -1.04969516     0.08670612     0.12362717
O       1.65896602     2.82125099     1.83037997     1.15210687     0.27722390    -0.25741766
