# total energy = -19068.66068483 eV

CRYSTAL
PRIMVEC
        5.17600016     0.00000000     0.00000000
        0.00000000     5.50899976     0.00000000
        0.00000000     0.00000000     9.26300011
PRIMCOORD
22 1
Ti      1.99674801     3.33198001     3.28075898     0.15748707     0.09262480    -0.19678177
Ti      3.34461501     2.34599198     6.06884998     2.34716815     2.39630709     0.02876988
Ti      4.47845898     2.16957502     1.42317401     1.90400956    -1.55853698     0.07193024
Ti      1.27654698     2.30795101     7.82100501    -2.82786794    -1.05355439     0.73124669
Ti      1.86333100     0.74648299     1.59579099    -2.59345575    -1.84476515    -2.67772549
Ti      3.17467699     0.16494000     7.85127898     0.36899124    -3.13717022     1.52581659
Ti      0.82201801     5.26070001     5.95717802    -1.88543667    -0.93469430     1.35131010
Ti      4.19502598     5.18805000     3.57565798     0.88071037    -1.40458132     0.32978601
O       3.50817402     3.48667900     4.47468398    -0.57657087    -0.26738943     0.20432873
O       1.25877297     2.10011702     0.40054802    -0.56954764     0.88022212     0.91445792
O       4.42847602     4.27315699     6.78573000     0.66374364     0.66856986     0.78535815
O       3.70495202     0.50723402     0.53371399    -1.00050686    -0.03879282    -1.24308744
O       1.19290300     0.33305300     7.99564901     1.77189363     0.31882205    -0.62965748
O       4.49307702     0.64763998     5.11224801    -1.47718082     1.72183166     0.96376552
O       1.14773402     4.67657701     4.20888503    -0.45595009     0.41579664     2.84372831
O       0.23441102     3.20680800     2.71416499    -1.72508591     0.16803014    -1.78610643
O       3.87975302     1.82813700     7.90591298     0.78149352     1.80309500    -2.03781933
O       2.94485801     1.56665899     2.59004302     1.12780274     3.33946212     3.29097779
O       2.02525299     3.79539201     7.26255600     1.17444385     0.62288725    -2.06304417
O       0.12219401     0.78012601     2.69175602     1.89766381    -0.01278996    -2.87268537
O       1.79539998     1.42250603     5.82608298    -0.54665350    -0.09797989    -0.18961841
O       2.70288298     4.63536998     2.18925798     0.58284848    -2.07739428     0.65505048
