# total energy = -19071.65655205 eV

CRYSTAL
PRIMVEC
        5.17600016     0.00000000     0.00000000
        0.00000000     5.50899976     0.00000000
        0.00000000     0.00000000     9.26300011
PRIMCOORD
22 1
Ti      1.39489901     3.14288698     3.63516100     1.03273590    -0.18340945    -0.74605008
Ti      4.07102800     3.09406202     5.98828099     0.03526655     0.03695628    -0.56599078
Ti      4.13276103     2.15003097     1.37158801     0.93813419    -0.54029799     1.79187213
Ti      1.32184302     2.91127600     8.08536302    -0.43184419     0.88100991     0.37818756
Ti      1.54635700     0.48743998     1.36571901    -0.01777661    -1.09435190     2.03728171
Ti      3.35720700     5.33332302     8.05095200    -0.30676923    -1.81780815     1.50463301
Ti      1.56453900     0.23356402     5.71992902     1.17429190     0.56482889    -0.94602465
Ti      4.09605502     4.75416498     3.42839398    -1.66087232     1.10583651    -0.29065046
O       3.17612900     3.13244901     4.19799101     1.07675089    -0.18685371     2.53085039
O       0.74862102     1.75581202     0.36136901    -1.54409997     1.58803346    -2.92713801
O       4.89162999     4.08075502     7.66652500    -0.23104610    -0.40707880    -0.81066424
O       3.16834999     0.86954898     0.54370200     1.59258123    -1.15960755    -3.32995367
O       2.04613602     4.28641701     9.14205897     0.31957693    -0.17246478     0.33707304
O       3.22323302     0.12204500     4.89901402    -1.23581919     1.35265350     0.31656179
O       0.43431201     4.55163302     4.60926699     0.68392424    -0.06648721     1.84199401
O       0.00570099     3.47699500     2.30636300    -0.87945696    -0.30085852     0.05170182
O       0.27257502     1.89418102     5.41461602     1.51695580    -0.04690054     0.28107593
O       2.30761202     2.05899100     2.34016002     0.13561134    -0.76930006    -0.48799736
O       2.38137002     4.23722802     6.71397801    -0.25426497    -1.81951536     0.19562349
O       4.99266400     0.58832498     2.32785898    -0.29300482     0.65117660     0.38541853
O       2.42496798     1.16718298     7.32225302    -1.23911457     2.77052152    -1.15444040
O       2.36843899     4.77845898     2.63157201    -0.41176078    -0.38608291    -0.39336350
