# total energy = -19887.73410546 eV

CRYSTAL
PRIMVEC
        8.92817307     0.00000000     0.00000000
        0.00002776     3.16742536     0.00000000
        0.00000000     0.00000000    14.20397032
PRIMCOORD
24 1
Ti      3.23604956     1.87701323     5.26957180     0.09439937     0.15802134     2.01490950
Ti      5.69215091     1.29041183     8.93439894    -0.09439937    -0.15802134    -2.01490950
Ti      7.69998380     1.29041285     1.83235682     0.11121825    -0.15795475    -2.01380599
Ti      1.22821672     1.87701233    12.37161404    -0.11121825     0.15795475     2.01380599
Ti      3.23603604     0.29330061     1.83241378     0.09450530     0.15859804    -2.01344886
Ti      5.69216448     2.87412456    12.37155708    -0.09450530    -0.15859804     2.01344886
Ti      1.22820315     0.29329953     8.93434198    -0.11099919     0.15847797    -2.01603333
Ti      7.69999737     2.87412565     5.26962876     0.11099919    -0.15847797     2.01603333
O       2.82583278     1.11530422     7.24817750     1.79692230     0.38582631    -1.60104839
O       6.10236774     2.05212090     6.95579324    -1.79692230    -0.38582631     1.60104839
O       1.63832523     1.11531707     0.14623786    -1.79691638     0.38607339    -1.60229794
O       7.28987536     2.05210804    14.05773246     1.79691638    -0.38607339     1.60229794
O       6.10235417     0.46840816     0.14619173    -1.79690327    -0.38560674    -1.60140371
O       2.82584636     2.69901689    14.05777859     1.79690327     0.38560674     1.60140371
O       7.28986178     0.46839536     7.24822357     1.79754990    -0.38585228    -1.60213159
O       1.63833862     2.69902975     6.95574718    -1.79754990     0.38585228     1.60213159
O       0.32439784     1.92660765     3.83684681    -1.26551956     0.48261373     1.38388162
O       8.60380268     1.24081740    10.36712387     1.26551956    -0.48261373    -1.38388162
O       4.78849618     1.24078804     3.26518369    -1.26589777    -0.48257799    -1.38402457
O       4.13970434     1.92663707    10.93878681     1.26589777     0.48257799     1.38402457
O       0.32438427     0.34289497     3.26513835    -1.26565248     0.48294283    -1.38418527
O       8.60381626     2.82453014    10.93883215     1.26565248    -0.48294283     1.38418527
O       4.13969083     0.34292433    10.36716915     1.26581498     0.48287752    -1.38397469
O       4.78850970     2.82450072     3.83680147    -1.26581498    -0.48287752     1.38397469
