# total energy = -19961.14794991 eV

CRYSTAL
PRIMVEC
        7.60600008     0.00000000     0.00000000
        0.00000000     7.60600008     0.00000000
       -1.89786986    -1.89786986     4.85670466
PRIMCOORD
24 1
Ti      3.83074999     6.66509298     1.17934802    -0.74812008     0.48328478    -0.42672538
Ti      3.73287998     2.82352401     1.24886699     1.53899093    -0.30333372    -1.48278480
Ti     -0.08448701     6.72753701     1.22668801     0.91195186     0.18482639     0.10650233
Ti     -0.02046900     2.86740001     1.30599802    -1.28125266    -0.28923122    -0.88901350
Ti      5.64447221     2.93485725     3.70252579     1.21176317    -1.67707002    -0.71631578
Ti      5.62586422    -0.93917976     3.60177484     1.54505128     1.81565279     1.27098238
Ti      1.97744923     2.79570924     3.63549179    -0.87224013    -1.30652224     0.61880742
Ti      1.94590720    -1.02851975     3.53945183    -0.88523732     1.29484531     0.75343069
O       3.87802002     4.76703801     0.78618102    -0.32999247    -0.05215536     0.05106624
O       3.92962200     1.01642699     0.74042798    -0.54611666    -1.68320596    -0.21868089
O      -0.07785499     4.79805701     0.74510401     0.12229071    -0.46686160     1.43579170
O      -0.07881698     1.02592001     0.76340698     0.06504328    -0.90712487     0.29651721
O       5.59309724     4.78336625     4.10085280     0.01735830     0.28011408    -0.39045790
O       5.70147724     0.92916424     3.99694684     0.03017216    -0.05912357     0.81674927
O       2.05576524     4.73224021     4.03291083    -0.11355358    -0.02316488    -0.29030234
O       2.11520725     0.91384625     4.11195981    -0.80558091     0.68778295    -0.70553771
O       3.86935622     2.57838022     3.11485879    -1.62042911     1.00192482     1.17068104
O       3.84698123    -0.93211980     3.20640979    -1.59498495    -0.35914622    -0.96159448
O      -0.03442176     2.72127824     3.31448583     1.72380781     0.71832638    -0.31066677
O       0.02473020    -0.97838179     3.24345881     0.17558687    -0.18657011    -0.65735008
O       5.65849599     6.75985598     1.60372002     0.66312143    -0.35275471     0.10834350
O       5.74865699     2.85531402     1.76041798    -0.00455651     0.64698467    -1.14328515
O       1.87053998     6.72746202     1.49005100     0.78430245    -0.19006836     0.97966446
O       1.89297900     2.71539400     1.61760802     0.01262438     0.74259092     0.58417799
