# total energy = -39026.14785583 eV

CRYSTAL
PRIMVEC
        5.93200024     0.00000000     0.00000000
        0.00000000     9.29399984     0.00000000
        0.00000000     0.00000000     9.29399984
PRIMCOORD
46 1
Ti      4.43705800     7.34262698     7.04926402    -0.12793557     1.08265466     0.16344097
Ti      4.44509202     6.61650202     2.32265097     0.66807569     0.72606875     1.33944291
Ti      4.43658201     1.99808900     7.08971401     1.42271532    -2.38117948    -1.25459211
Ti      4.36170200     2.39636902     2.43721102     1.11272218     0.87246459     0.00516278
Ti      1.49093399     7.23242799     7.27272298     0.26518522    -1.52340798    -2.32965636
Ti      1.68648901     7.05708399     1.76140802    -1.67042500    -0.52256894     1.16859407
Ti      1.55670501     2.44711299     6.63236601    -0.96850844    -2.04866759     1.64044027
Ti      1.06632999     2.46294502     3.57281402     2.53643175    -1.71092581     1.30867554
Ti      3.13556301     4.77833700     4.98404799    -0.55944320     1.40798598    -1.22115001
Ti      3.04448399     4.40455599     8.88022498    -4.47902869     2.77686418    -1.43990469
Ti      3.03604001     0.06088698     4.45569398    -0.06775939     0.92196143     1.66037584
Ti      2.77802901     0.31002400     0.16404299     3.62148551    -1.12976552    -0.33730983
Ti      0.12876602     4.78701101     4.76372499    -0.95392231     5.71311778    -1.47956912
Ti      5.74686001     4.76506899     8.95607799     1.33746214     1.20539300    -0.82421936
Ti      0.14779598     8.36666799     3.99677798     1.73289846     0.74495633     3.05349930
Ti      0.04604001     0.30749802     0.09438300    -2.39735018    -0.56053335     0.30667359
O       4.62977599     5.28353400     5.91061899    -1.21395324     0.95978417    -1.20415116
O       4.20720801     4.39448400     0.91000802     1.73823479     0.41349293     2.62974997
O       4.17771998     0.99315399     5.67081200     0.79411276    -0.96520714    -2.07470799
O       4.42731198     1.02598002     1.10207999     0.21885598     1.61659868    -1.13759453
O       1.61367099     5.85943798     5.83872899     0.29450969    -2.59397409    -1.69994436
O       1.29799898     5.67489498     0.50294699     0.01522968    -0.24907365     0.82831616
O       1.48851501     1.09789701     5.09219102     0.24981516    -1.10240768     0.09955161
O       1.60758302     1.09710297     1.12821600    -2.06847383     0.95144376     0.01008953
O       4.63740599     8.52055897     8.56626999    -0.19655937    -0.11171242    -1.84804587
O       4.44443198     8.10832201     3.61172898    -4.78791908     0.10030263    -0.12456202
O       4.32566100     3.60069801     7.91455402     0.94901947     1.20672458    -0.16177901
O       4.40369602     4.18531902     3.65951702     0.75490419    -0.75321626    -0.71884317
O       1.41234598     8.45523400     8.77408499     0.33889003    -0.91864470    -1.03011595
O       1.81811698     8.36728098     3.37540101     1.02271734     0.51100386    -0.41249046
O       1.14768502     3.67256600     8.38121999     1.85275357    -0.82994135    -1.18816095
O       1.51450799     4.26008001     3.54305802     0.19304390    -1.62922255    -0.35291489
O       3.08331602     6.10557498     7.84618702     0.07460341     0.20176765     1.17709543
O       2.77324900     6.10793998     3.03581199     1.67889885     0.75160624    -1.31426306
O       2.90496799     1.28523501     7.77889298    -0.88984371     0.73389416     0.99323320
O       2.90035198     1.74634901     3.10914701    -1.24909483    -0.38485546     1.27853037
O       5.75178702     6.21070001     7.62728798     1.69912238    -1.25727300     3.33351310
O       0.19397299     6.27780900     3.39446102    -1.48051271     1.30149213    -0.73588239
O       0.26731198     1.40983599     7.79099802    -1.51615181    -0.17664642     0.11107221
O       2.93925698     8.14668398     6.21063402    -0.69672088    -0.16545621    -0.42799653
O       3.16484101     7.97544597     1.24281500     0.37163767    -1.50239564     0.15131385
O       2.90383899     3.08635900     5.61008299     1.40661635     0.94056825     1.09453445
O       0.13046198     7.86601598     5.88020802    -0.72872907     1.00594526    -0.09656296
O       5.80699302     7.92795099     1.59582502     1.26846193    -0.07051073    -0.43567359
O       0.39778302     3.20719398     5.36872800    -1.25193693    -3.47845344     1.95358353
O       5.57333999     1.30236702     3.36015801    -0.31413493    -0.08005107    -0.45679856
