# total energy = -4977.84590789 eV

CRYSTAL
PRIMVEC
        4.38122694     0.00000000     0.00000000
       -0.00000711     2.92081762     0.00000000
       -2.19063929    -1.46045338     4.85366318
PRIMCOORD
6 1
Ti     -0.00018830     2.19071932     1.21341554    -0.00874612    -0.01240583    16.76823710
Ti      2.19076889    -0.73035539     3.64024698     0.00874612     0.01240583   -16.76823710
O       0.00004610     0.73019647     0.79062195     0.00676843     0.01251022    -8.25453182
O       2.19053439     0.73016741     4.06304062    -0.00676843    -0.01251022     8.25453182
O      -0.00001877    -0.73019917     3.21745344    -0.00167533    -0.00020749    -0.39656350
O       2.19059921     2.19056300     1.63620918     0.00167533     0.00020749     0.39656350
