# total energy = -4973.89278607 eV

CRYSTAL
PRIMVEC
        4.73016559     0.00000000     0.00000000
       -0.00000716     2.83809935     0.00000000
       -2.36510944    -1.41910145     5.15135435
PRIMCOORD
6 1
Ti     -0.00020275     2.12867539     1.28783824    -0.01020960    -0.01284446    19.85515664
Ti      2.36525159    -0.70967760     3.86351547     0.01020960     0.01284446   -19.85515664
O       0.00005010     0.70951572     0.83911342     0.00902303     0.01363919   -11.73586001
O       2.36499863     0.70948202     4.31224035    -0.00902303    -0.01363919    11.73586001
O      -0.00001948    -0.70952517     3.41479060    -0.00227388    -0.00042680    -1.48351859
O       2.36506816     2.12852286     1.73656312     0.00227388     0.00042680     1.48351859
