# total energy = -4988.87305351 eV

CRYSTAL
PRIMVEC
        2.80451398     0.00000000     0.00000000
        0.21957566     4.38876355     0.00000000
       -0.00000121    -0.00005703     4.39562778
PRIMCOORD
6 1
Ti      1.51204411     2.19435311     2.19781379     0.00000000     0.00000000     0.00000000
Ti      0.00000000     0.00000000     0.00000000     0.00000000     0.00000000     0.00000000
O       1.44504874     0.85529415     0.85664305    -0.68904099     0.81139726     0.81716888
O       1.57903943     3.53341207     3.53898448     0.68904099    -0.81139726    -0.81716888
O       0.06699477     1.33903584     3.05445774     0.68897594    -0.81140369     0.81718173
O       0.15257957     3.04967058     1.34116980    -0.68897594     0.81140369    -0.81718173
