# total energy = -19516.79756488 eV

CRYSTAL
PRIMVEC
        5.17600016     0.00000000     0.00000000
        0.00000000     5.50899976     0.00000000
        0.00000000     0.00000000     9.26300011
PRIMCOORD
23 1
Ti      1.98568799     3.12511800     3.36684998    -1.52808199     0.45789127     2.76162679
Ti      3.35242101     2.24698498     5.82976299    -0.06802987     0.94800183    -2.34692980
Ti      4.40320198     2.03917898     1.55030101     1.28893023     0.87898619    -2.48587536
Ti      0.86181198     3.40964301     7.74420203    -0.50392432    -0.56281906     3.28343571
Ti      1.99226302     0.29496001     1.32561103    -0.00823448    -1.57332597    -1.53214691
Ti      3.19238300     5.26530702     7.80775198    -0.38957112    -1.20264269     3.02040096
Ti      0.61115802     0.56197798     5.97755499     0.66045108    -0.61879688    -3.44665403
Ti      4.48383298     4.91988001     3.29064899     0.78954031     0.38159299     3.57323077
O       1.73767299     1.95530798     4.84104398    -1.09031629    -0.09169586    -0.31623861
O       3.45451100     3.65578902     4.45271800     0.63629967    -0.09192289     0.63096052
O       0.29666698     2.49954397     0.07295201    -0.30066106     0.29581247     0.15959666
O       3.30347598     0.86018799     0.16490502     1.43060038     1.33027410    -0.14828534
O       1.74995800     4.66882202     9.08627798     0.18519252    -0.29018381    -0.45523584
O       4.19220298     0.84906802     4.86910201     0.74218340    -0.87308705    -0.68624954
O       0.97718998     4.77594401     4.39660198    -0.86850560     0.67570622     1.03294751
O       0.12633101     3.36886498     2.68639900     0.35030934    -1.49843639    -1.54703257
O       5.05917200     2.14414599     6.78368801    -0.65343685     0.41270900     0.00203709
O       2.74657302     1.62804101     2.48191502     0.18891779     0.79901817    -0.20134702
O       2.49027602     3.60281001     6.96959898     1.42499820     0.23851182     0.01443675
O       0.26634301     0.63191701     2.00041198    -0.66628826    -0.65780542     0.64936423
O       5.04656399     4.93278903     7.44207103    -1.10418817     0.46057474    -0.92816241
O       2.35614800     0.98975598     6.91069102    -1.10114681     0.42014309    -0.12228763
O       2.83942002     4.44916198     2.26335799     0.58496115     0.16149362    -0.91159242
