# total energy = -19932.42342141 eV

CRYSTAL
PRIMVEC
        6.07668024     0.00000000     0.00000000
        1.59201279     6.26841971     0.00000000
        0.00000000     0.00000000    10.96322980
PRIMCOORD
24 1
Ti      3.14592969     3.71465990     4.06728027    -0.03431704    -1.99772296     0.81798752
Ti      4.52276352     2.55376022     6.89595015     0.03431704     1.99772296    -0.81798752
Ti      5.88933235     2.55376239     1.41429117    -0.23085275    -0.50286117    -0.09907261
Ti      1.77936088     3.71465797     9.54893937     0.23085275     0.50286117     0.09907261
Ti      2.34992342     0.58045009     1.41433512    -0.03431704    -1.99772296    -0.81798752
Ti      5.31876981     5.68797027     9.54889541     0.03431704     1.99772296     0.81798752
Ti      0.98335450     0.58044769     6.89590619     0.23085275     0.50286117    -0.09907261
Ti      6.68533873     5.68797262     4.06732422    -0.23085275    -0.50286117     0.09907261
O       2.48388244     2.20721728     5.59445251     1.75333103     1.99457258    -0.63774643
O       5.18481070     4.06120285     5.36877791    -1.75333103    -1.99457258     0.63774643
O       1.67564922     2.20724257     0.11287263    -0.68075201     0.05290407     0.96112988
O       5.99304406     4.06117766    10.85035748     0.68075201    -0.05290407    -0.96112988
O       4.38880442     0.92699286     0.11283706    -1.75333103    -1.99457258    -0.63774643
O       3.27988879     5.34142726    10.85039305     1.75333103     1.99457258     0.63774643
O       5.19703777     0.92696761     5.59448808     0.68075201    -0.05290407     0.96112988
O       2.47165538     5.34145258     5.36874233    -0.68075201     0.05290407    -0.96112988
O       1.18913227     3.81280835     2.96144205     0.46060507     1.52442357     1.59939851
O       6.47956087     2.45561178     8.00178837    -0.46060507    -1.52442357    -1.59939851
O       3.88277765     2.45555332     2.52020805     0.76358655     1.52013805     0.68220957
O       3.78591556     3.81286686     8.44302218    -0.76358655    -1.52013805    -0.68220957
O       0.39312598     0.67859836     2.52017303     0.46060507     1.52442357    -1.59939851
O       7.27556723     5.58982182     8.44305720    -0.46060507    -1.52442357     1.59939851
O       2.98990927     0.67865680     8.00182332    -0.76358655    -1.52013805     0.68220957
O       4.67878393     5.58976332     2.96140703     0.76358655     1.52013805    -0.68220957
