# total energy = -19516.28800496 eV

CRYSTAL
PRIMVEC
        5.17600016     0.00000000     0.00000000
        0.00000000     5.50899976     0.00000000
        0.00000000     0.00000000     9.26300011
PRIMCOORD
23 1
Ti      1.91082799     3.22604401     3.51118302     0.42183977    -0.01367699     0.61412184
Ti      3.45115501     2.24651300     5.82638498     1.13699649    -0.73865687    -1.57584540
Ti      4.26237601     2.19724798     1.47637098     0.72164362     0.24222912    -1.15673306
Ti      0.81092302     3.50331802     7.77026300    -2.73146002    -0.57518196     0.85016154
Ti      1.88814502     0.11756699     1.48985002     1.79421235    -0.52977420    -1.40496365
Ti      3.18517100     5.00722902     8.06824700     0.99367003     1.90804336     0.50093181
Ti      0.85186202     0.49643203     5.87332898    -0.75713591     1.36186654    -0.98073378
Ti      4.57741898     4.99971598     3.20718101    -1.20421415    -0.85444115     3.37520973
O       1.63484602     1.95318402     4.78508200     0.66963327     0.76711462     0.16727860
O       3.63685902     3.65011602     4.35377100    -0.90472114    -0.63154287     1.07081987
O       4.91125299     2.80083898     9.11187899    -1.45449211    -0.46269153     0.66756636
O       3.26863998     0.72187000     0.41475997     0.20543148     0.01662347    -1.85994520
O       1.47643099     4.47017899     9.20768801     2.16202397     1.11075220    -0.12625227
O       4.33230498     0.90731001     4.75890302    -0.41293655    -0.79227339    -1.00053720
O       1.02833703     4.88735201     4.40788599     0.38715609    -1.72754568    -1.19870530
O       0.27440698     3.54734001     2.29613798     1.01219741    -0.98256852     0.92039691
O       5.10247199     1.99662101     6.69233100    -0.00508796     2.47485380     0.85400972
O       2.73573002     1.74456700     2.48265899    -1.02957833    -0.31361480    -0.07687087
O       2.46797802     3.66952402     6.94400098     0.94977794    -0.62267668    -0.32368710
O       0.17633800     0.58629998     1.94058399    -0.84176432     2.50722940    -0.58063527
O       5.10465198     5.13542502     7.31340200    -1.30518989    -1.43135809    -0.11449101
O       2.54115101     0.87094902     6.89193100    -0.34631384    -0.77171690     0.67469012
O       2.96219401     4.27696098     2.09602097     0.53831130     0.05900684     0.70421333
