# total energy = -19960.61112716 eV

CRYSTAL
PRIMVEC
        5.93400000     0.00000000     0.00000000
        0.00000000     9.29699974     0.00000000
        0.00000000     0.00000000     4.64899994
PRIMCOORD
24 1
Ti      4.47061202     6.92725898     2.41480502     0.05896005    -0.39768424    -0.90079584
Ti      4.43951000     2.35493401     2.26682299     0.03362901    -0.29392168     0.51379351
Ti      1.49835401     6.98735198     2.34561102     0.29422970    -0.19703631    -0.79868161
Ti      1.47458098     2.42895702     2.31829802     0.20660261    -0.81850380    -0.17395808
Ti      2.96315902     4.65228899     4.60863901     1.12776494     1.37967144     0.58432583
Ti      2.99607300     0.00674098     4.64817898    -0.19511004    -0.32858196     0.33098517
Ti      0.03795100     4.64071298     0.00897998    -1.07929063     1.31062135     0.29690570
Ti      5.93028502     9.29361402     4.61016500     0.38091627    -0.21765425     0.46857498
O       4.35466902     5.58242998     0.95239501     0.61526573    -0.90630983    -0.67290397
O       4.51105301     0.92458198     0.87781700    -0.78260681     0.16418942     0.20246391
O       1.52747601     5.51088702     0.95155399    -0.77930963     0.40398011    -0.13050050
O       1.38079601     0.90575798     0.88520702     1.09956996     0.04314570     0.28481817
O       4.48182502     8.35487098     3.79081701    -0.84707005     0.27993410     0.10008948
O       4.41436201     3.76014399     3.80231698     0.54071451    -0.74702993    -1.19697881
O       1.56464801     8.27887600     3.80555602    -0.44076361     0.74624883     0.00149638
O       1.46174002     3.79208301     3.74286402    -0.09313748    -1.24588249    -0.94085930
O       2.90032197     6.08126802     3.19347501    -0.13631737    -0.82235454     0.90677777
O       2.92859898     1.41754001     3.21315902     0.04088467     0.31864336    -0.24337994
O       0.00411800     5.91323302     3.23391801     0.42151966     1.08990800    -0.18666164
O       5.83579402     1.39940299     3.22366399     0.67305078     0.62572447    -0.65407217
O       3.10859497     7.78782697     1.45799498    -2.04644178     1.63155119    -0.70724878
O       2.97477901     3.20573202     1.24074100    -0.59776808    -1.25639188     2.10412682
O       5.77774603     7.84434898     1.42243998     1.73025228     0.09942845     0.27077712
O       0.00941999     3.30840400     1.44194302    -0.22554522    -0.86169577     0.54090580
