# total energy = -19920.48477308 eV

CRYSTAL
PRIMVEC
        6.33748197     0.00000000     0.00000000
        1.66033951     6.53745059     0.00000000
        0.00000000     0.00000000    11.43375468
PRIMCOORD
24 1
Ti      3.28094813     3.87408736     4.24184165    -0.20975710    -1.90181563     0.71962762
Ti      4.71687354     2.66336366     7.19191367     0.20975710     1.90181563    -0.71962762
Ti      6.14209340     2.66336592     1.47499036     0.04340409    -0.45901742    -0.19413662
Ti      1.85572830     3.87408536     9.95876509    -0.04340409     0.45901742     0.19413662
Ti      2.45077851     0.60536211     1.47503620    -0.20975710    -1.90181563    -0.71962762
Ti      5.54704319     5.93208917     9.95871925     0.20975710     1.90181563     0.71962762
Ti      1.02555855     0.60535960     7.19186783    -0.04340409     0.45901742    -0.19413662
Ti      6.97226314     5.93209161     4.24188750     0.04340409    -0.45901742     0.19413662
O       2.59048683     2.30194763     5.83455777     1.80278390     2.00859667    -0.60863125
O       5.40733477     4.23550340     5.59919756    -1.80278390    -2.00859667     0.60863125
O       1.74756549     2.30197401     0.11771695    -0.75944888     0.11807050     0.95722978
O       6.25025625     4.23547713    11.31603806     0.75944888    -0.11807050    -0.95722978
O       4.57716512     0.96677796     0.11767985    -1.80278390    -2.00859667    -0.60863125
O       3.42065654     5.57067306    11.31607516     1.80278390     2.00859667     0.60863125
O       5.42008660     0.96675163     5.83459487     0.75944888    -0.11807050     0.95722978
O       2.57773501     5.57069947     5.59916046    -0.75944888     0.11807050    -0.95722978
O       1.24016799     3.97644819     3.08854257     0.50625940     1.59847805     1.70436563
O       6.75765361     2.56100284     8.34521276    -0.50625940    -1.59847805    -1.70436563
O       4.04942046     2.56094188     2.62837149     0.66949340     1.63305400     0.81983948
O       3.94840121     3.97650921     8.80538365    -0.66949340    -1.63305400    -0.81983948
O       0.40999834     0.70772275     2.62833497     0.50625940     1.59847805    -1.70436563
O       7.58782333     5.82972834     8.80542017    -0.50625940    -1.59847805     1.70436563
O       3.11823156     0.70778371     8.34524921    -0.66949340    -1.63305400     0.81983948
O       4.87959011     5.82966732     3.08850605     0.66949340     1.63305400    -0.81983948
