# total energy = -19074.06344208 eV

CRYSTAL
PRIMVEC
        5.17600016     0.00000000     0.00000000
        0.00000000     5.50899976     0.00000000
        0.00000000     0.00000000     9.26300011
PRIMCOORD
22 1
Ti      1.88997697     3.52724001     3.38769999     0.83188871    -0.42454817    -0.29561424
Ti      3.51205998     2.13292199     5.92155301     1.74554007     1.06038042    -1.24369731
Ti      4.42000701     2.20901799     1.35265299    -0.07109206     0.70032762    -2.65369081
Ti      0.65117002     3.24995901     7.95485601    -0.07315125    -1.67906160     2.32709528
Ti      1.81549999     0.49348001     1.26367998    -0.46888326     2.39337526    -2.04742677
Ti      3.17446997     5.09131100     8.06615600     0.58561241    -0.62896997     1.29273084
Ti      0.77153900     0.06498402     6.03328699    -0.88727183     1.17779528    -0.84213507
Ti      4.43391702     4.97461101     3.27605502     0.01319722     0.28554734     2.54769473
O       3.65867002     3.32619901     4.35699100    -0.92557280     0.17152684     1.01575685
O       0.93139699     1.85943900     0.11840500    -0.52898590     0.45081122     0.05408600
O       4.36862501     3.62825100     9.06616802    -1.38643036     0.84245414    -0.57326520
O       3.50942600     0.92625000     0.17513798    -0.40833993    -0.69224664    -0.53507762
O       1.70758799     4.65989999     9.25399801     0.03795387    -0.38225299    -1.37628144
O       4.35288701     0.71961602     4.87993300    -0.54723097    -0.35325145     0.06430974
O       1.15173799     5.11064402     4.25191999     0.12777719    -1.69173457     1.30461988
O       0.18380400     3.71873999     2.32288000     0.58841209    -1.89406581    -0.01612545
O       5.05039798     1.71321299     6.96065102     0.04504729     0.32750956    -0.18861671
O       2.53101002     2.20789598     2.13053000     1.24941570    -0.24472952     0.58728697
O       2.15295801     3.74018898     6.86408199    -0.00392042     0.19115953    -0.51023510
O       0.12804899     0.76531799     2.18559502    -0.24461947     0.67984261     0.33803411
O       2.38377301     0.86364902     6.67154402    -0.40402073    -0.60938150     0.84092074
O       2.77293398     4.84743602     2.40406902     0.72467469     0.31951214    -0.09036865
