# total energy = -4988.50426262 eV

CRYSTAL
PRIMVEC
        3.55705454     0.00000000     0.00000000
        0.17773403     3.55261138     0.00000000
       -1.86742586    -1.77633573     4.54101292
PRIMCOORD
6 1
Ti      0.13315683     2.66459344     1.13525311     0.00261224    -0.00266649     0.00120868
Ti      1.73420542    -0.88831822     3.40575957    -0.00261224     0.00266649    -0.00120868
O       0.04447093     0.88814703     0.73969387     0.00029311     0.00172521     1.35866732
O       1.82289117     0.88812809     3.80131885    -0.00029311    -0.00172521    -1.35866732
O      -0.04445338    -0.88813035     3.01020034     0.00172341     0.00026405     1.36271321
O       1.91181548     2.66440542     1.53081244    -0.00172341    -0.00026405    -1.36271321
