# total energy = -19900.81711490 eV

CRYSTAL
PRIMVEC
        4.39938963     0.00000000     0.00000000
        0.00002411     4.68228096     0.00000000
        0.00000000     0.00000000     7.87394007
PRIMCOORD
24 1
Ti      1.59458143     2.77471537     2.92117566    -0.23007191     1.83618769    -2.82613013
Ti      2.80483231     1.90756564     4.95276463     0.23007191    -1.83618769     2.82613013
Ti      3.79419923     1.90756725     1.01576302    -0.22400256    -1.83534873     2.82694800
Ti      0.60521451     2.77471394     6.85817736     0.22400256     1.83534873    -2.82694800
Ti      1.59456947     0.43357498     1.01579460    -0.23007191     1.83618769     2.82613013
Ti      2.80484428     4.24870616     6.85814579     0.23007191    -1.83618769    -2.82613013
Ti      0.60520255     0.43357323     4.95273305     0.22400256     1.83534873     2.82694800
Ti      3.79421119     4.24870791     2.92120724    -0.22400256    -1.83534873    -2.82694800
O       1.39244308     1.64871077     4.01801143    -4.84475077    -4.07120941    -0.81532463
O       3.00697066     3.03357028     3.85592886     4.84475077     4.07120941     0.81532463
O       0.80729443     1.64872963     0.08106663     4.84464741    -4.07226639    -0.81364235
O       3.59211935     3.03355142     7.79287344    -4.84464741     4.07226639     0.81364235
O       3.00695869     0.69242976     0.08104108     4.84475077     4.07120941    -0.81532463
O       1.39245505     3.98985125     7.79289899    -4.84475077    -4.07120941     0.81532463
O       3.59210739     0.69241090     4.01803698    -4.84464741     4.07226639    -0.81364235
O       0.80730631     3.98987015     3.85590331     4.84464741    -4.07226639     0.81364235
O       0.15985465     2.84802871     2.12694770    -1.75253578     1.00118897    -1.20719586
O       4.23955909     1.83425229     5.74699259     1.75253578    -1.00118897     1.20719586
O       2.35955299     1.83420865     1.81004748    -1.75296053    -1.00208294     1.20796462
O       2.03986075     2.84807235     6.06389268     1.75296053     1.00208294    -1.20796462
O       0.15984268     0.50688819     1.81002234    -1.75253578     1.00118897     1.20719586
O       4.23957106     4.17539282     6.06391782     1.75253578    -1.00118897    -1.20719586
O       2.03984878     0.50693183     5.74701769     1.75296053     1.00208294     1.20796462
O       2.35956496     4.17534918     2.12692255    -1.75296053    -1.00208294    -1.20796462
