# total energy = -19517.73646866 eV

CRYSTAL
PRIMVEC
        5.93400000     0.00000000     0.00000000
        0.00000000     9.29699974     0.00000000
        0.00000000     0.00000000     4.64899994
PRIMCOORD
23 1
Ti      4.60425700     7.24640700     2.22783299     0.49162905    -1.58517619     0.26553001
Ti      4.41100899     2.21957201     2.35371998    -0.83982673    -0.12578818     0.12733882
Ti      1.50999897     6.99493599     2.20856898    -1.97246366     0.15638561     0.90526288
Ti      1.39093801     2.30904800     2.26808698     0.42516343    -0.39429501     0.53342903
Ti      3.03992502     4.41357200     0.07531102    -0.58670462     0.09016348     0.63192546
Ti      2.97374802     9.15960099     4.64546499    -1.32583149     0.95583289    -1.09533612
Ti      0.05745902     4.74539000     0.09781402    -0.00479408     0.54755133    -0.88693630
Ti      5.91079002     0.11967799     0.00552302     1.30958340    -0.39121843    -0.07688347
O       4.32526798     5.77379000     0.89738799    -0.15559294    -1.53024506    -0.56283063
O       4.45180601     0.83704998     0.99045201    -0.00559986    -0.01081998    -0.74294496
O       1.56406401     5.57946199     0.86617002     0.18592271     0.45015328     0.59561144
O       1.54882201     0.84580998     0.96480099    -1.07282662     0.61898200    -0.29714147
O       4.45313599     8.19907602     3.85918501    -0.04812413     0.76764581    -0.06967127
O       4.26675998     3.70415402     3.55019799     0.40999572     1.31282839     1.55919467
O       1.44752299     8.33201799     3.75227602     0.59944058    -0.09849514     0.21408093
O       1.38900000     3.78235001     3.75152999     0.63860313    -0.25861425    -0.34337404
O       2.93593597     1.31063700     3.27697499     0.02241077     0.45702378    -0.12781807
O       0.04588999     6.12231201     3.28031701    -0.25727033     0.05403510    -1.02072268
O       5.88891198     1.30394698     3.19491601     0.07921880     0.61968211     0.08755561
O       2.93702301     7.99955799     1.55761498     0.65247835    -0.85786483     0.38312922
O       2.87335500     3.11806698     1.38052401     0.49602383     0.59506636    -0.52423245
O       0.09251003     7.97519102     1.39245500     0.45284317    -0.42887636     0.37879666
O       5.78703499     3.36740901     1.41453699     0.50572152    -0.94395594     0.06603598
