# total energy = -19960.71382202 eV

CRYSTAL
PRIMVEC
        7.60600008     0.00000000     0.00000000
        0.00000000     7.60600008     0.00000000
       -1.89786986    -1.89786986     4.85670466
PRIMCOORD
24 1
Ti      3.83448201     6.43574798     1.25904201     0.51806462     2.37622394    -0.20541374
Ti      3.76987402     2.79396301     1.25033202     0.46248738    -1.67017638    -0.75448819
Ti      0.03331801     6.75290402     1.23186997    -0.30570222    -0.90350090     0.04039127
Ti     -0.00570099     2.93141998     1.14504400    -0.07285069     0.71105376     0.29591866
Ti      5.66984424     2.96703524     3.54524183    -0.48716201    -0.41450852     0.65505819
Ti      5.72574023    -0.87989577     3.67011781    -0.09648351     0.53420730     0.05280611
Ti      1.80241920     2.78628825     3.58510983     0.80544464     0.27705627     0.25781824
Ti      1.93051624    -0.98553876     3.60523984     0.02531972    -0.23313872     2.20575279
O       3.79104000     4.68700900     0.87818700     0.15144883    -1.32927291    -0.54467735
O       3.80299602     0.81468499     0.83045802     0.09914743     0.92122403    -0.45541787
O       0.11404701     4.81172100     0.64131901    -0.23787984     1.48147713     1.56460427
O      -0.06055799     1.10305299     0.72794601     0.48366479    -2.41800746     1.39380505
O       5.68852923     4.84447723     4.09068683     0.19491026    -0.30092563     0.04656450
O       5.69964322     1.10710723     4.16823680    -0.11790749    -0.89575853    -3.11616173
O       1.87152022     4.61156325     4.16307780    -0.28920756     0.77699461    -0.75509754
O       1.88603222     0.88961623     4.04060280    -0.05075051     0.38618087     0.34633467
O       3.66224122     2.94723624     3.30736379     2.08987339    -0.37004025    -0.78815705
O       3.84887225    -0.94531975     3.24722581    -0.54856897     0.00435005     0.32287771
O      -0.03071578     2.89386522     3.03264582    -0.01681142     0.26259021     1.88910795
O       0.00588524    -0.84832680     3.26609982     0.95106144    -0.02794096    -0.28504623
O       5.78939602     6.52154598     1.81486402     0.01963295     0.10955655    -2.50199875
O       5.66209402     2.72012400     1.59504199    -0.10409064     0.78312643     0.32876503
O       1.96751599     6.52972198     1.69795898    -1.50560000     0.21206004    -0.45180470
O       1.97179799     2.85829699     1.57032698    -1.96804007    -0.27283014     0.45845897
