# total energy = -19517.29309991 eV

CRYSTAL
PRIMVEC
        5.93400000     0.00000000     0.00000000
        0.00000000     9.29699974     0.00000000
        0.00000000     0.00000000     4.64899994
PRIMCOORD
23 1
Ti      4.50900399     6.87134198     2.25659198     1.70835367     0.60722152     0.06017052
Ti      4.43972098     2.25284599     2.40164301    -0.69176045    -0.30694175    -0.13241803
Ti      1.60454602     7.07809498     2.26535701    -1.60299291     0.32055678    -0.29756699
Ti      1.37236701     2.40425799     2.28923502     0.67143073    -0.55679008    -0.25122695
Ti      2.90467599     4.47011798     0.09194502     0.52707557    -0.27616229     0.76533259
Ti      2.97858898     9.28331898     4.46830798    -0.46904164     0.10203092     0.76310679
Ti      0.00569802     4.67848798     0.01015698     0.08152277     0.60542997    -0.46662249
Ti      0.02907501     0.10433502     0.08865799    -0.43726768    -0.62479578     0.22308956
O       4.54679798     5.63245999     0.73579599    -1.87484038     0.64874150     1.42439914
O       4.48685501     0.96570001     1.00184303    -0.40139255    -0.23958834    -0.59953546
O       1.54002402     5.46178900     1.00657900     0.33005495     0.79828335    -0.33791353
O       1.49080799     0.87055902     0.88116400    -0.38024187     1.08771768     1.22992905
O       4.39715798     8.40804002     3.78427399     0.83314829    -0.60697598    -1.10553672
O       4.42528799     3.83484201     3.83432501    -0.20399860    -1.18947170    -1.19462779
O       1.39126700     8.52924701     3.72000198     0.77182849    -1.83630878    -1.07387023
O       1.43765399     3.64203401     3.83411402     0.73198948     0.59582895    -0.12676032
O       2.78415402     1.43483702     3.28307900     1.45231104     0.20535640    -0.26654045
O       0.13835598     6.03557198     3.11988698    -0.55484144    -0.31180088     1.00369965
O       0.04681901     1.45978799     3.19487399    -0.84288455    -0.65746166     1.10716577
O       3.02975503     7.90419998     1.34335302    -0.52369843    -0.85344536     0.98873069
O       2.97009997     3.18896298     1.55365398    -0.04273792     1.15274887    -1.15431159
O       5.88607898     7.77732201     1.36289199     0.44256827     1.28177228    -0.33494930
O       5.79629200     3.30115300     1.50470302     0.47541566     0.05405438    -0.22374416
