# total energy = -19961.07413002 eV

CRYSTAL
PRIMVEC
        7.60600008     0.00000000     0.00000000
        0.00000000     7.60600008     0.00000000
       -1.89786986    -1.89786986     4.85670466
PRIMCOORD
24 1
Ti      3.79522399     6.70337202     1.29080100     1.36786056     0.00681651    -0.39433512
Ti      3.77887702     2.89348903     1.18016401     1.98410613     0.31683022     0.84893924
Ti      0.06698902     6.52963202     1.27097199    -1.53049472     0.09445774    -1.82898551
Ti      0.10205099     2.78669100     1.19241103    -2.15706945     0.19865713    -1.01205934
Ti      5.72247521     2.86378721     3.61445281    -1.27128474    -0.82176318    -1.07631663
Ti      5.65815022    -1.06924280     3.63999482    -1.59612472     0.52114712    -0.22208220
Ti      1.90150420     2.98180024     3.63969981     1.13754414     0.17925712     0.78739652
Ti      1.78151622    -0.89623380     3.64856379     2.46245388    -0.48431914     0.97995808
O       3.85248002     4.88078403     0.76755800    -0.86411904    -1.36014930    -0.30720118
O       3.89951901     0.99516200     0.81432298    -0.87162692    -0.19320228    -0.64816352
O       0.07564901     4.73979501     0.67970701     0.39868235    -0.16365206     1.26419132
O       0.00384998     0.90570401     0.78246699     0.43448111    -0.83005397     0.12795100
O       5.38942121     4.67852221     4.02595782     0.98585053     1.73952497     0.59636091
O       5.62735422     0.93518024     4.05734184     0.77451503    -0.55201117     0.00180363
O       2.11774222     4.84449522     4.01989382    -1.14439021     0.38247385     0.04134773
O       1.94458823     1.05170825     4.11826379    -1.00738096    -0.94310362    -0.73578186
O       3.77359721     2.86650623     3.27973180    -0.52548586    -0.12380998    -1.05375699
O       3.78257825    -0.83794276     3.20181182    -0.14257595     0.24835117     0.13428440
O      -0.08547678     3.10730320     3.13575283     1.86465161    -0.28751757     0.45460515
O      -0.02549878    -1.06201175     3.17328980    -0.13678120     0.28436540     0.82222238
O       5.64991802     6.44895598     1.59710398     1.25312221     0.58826914     1.04234103
O       5.69918802     2.86718400     1.58362002    -0.48163825    -0.11627741     0.12541409
O       1.92071799     6.42165203     1.64268599    -1.00453063     1.01123042     0.12344514
O       1.90620298     2.72918902     1.63885501     0.07023459     0.30447838    -0.07157800
