# total energy = -19958.28393265 eV

CRYSTAL
PRIMVEC
        7.60600008     0.00000000     0.00000000
        0.00000000     7.60600008     0.00000000
       -1.89786986    -1.89786986     4.85670466
PRIMCOORD
24 1
Ti      3.91783299     6.65323899     1.06237598    -1.05360658    -1.54729560     1.01176366
Ti      3.89994500     2.59271600     1.17628001    -0.49455625     1.44992120     1.85072471
Ti     -0.09671201     6.71690102     1.17312802     0.63588830     2.80514915     1.04794604
Ti     -0.08409399     2.98641001     1.30533502    -0.43752684    -2.84153233    -1.18773774
Ti      5.60327724     2.92227722     3.79058380    -1.42636217    -0.04275592    -2.21069754
Ti      5.70176924    -0.80212079     3.70104383     0.92367018     0.05050034    -0.57314076
Ti      1.72004821     2.67366425     3.66902781     1.59230432     0.93896311     0.41238967
Ti      2.05261923    -0.98936376     3.58727183     0.07342096    -0.30840291    -1.96211317
O       3.87000801     4.71812102     0.69518201    -0.12835595     0.33297007     0.84978436
O       4.26585900     0.86402098     0.64311499    -1.15719637     0.55915601     0.59351265
O      -0.20715802     4.89922601     0.74806301     0.48221546    -1.24199215     1.94372669
O       7.29596101     1.09361400     0.64361501     1.07113097    -0.69064047     3.43763511
O       5.53290820     4.99084924     4.07948679     0.55246677    -3.47270162     0.28742450
O       5.45345023     1.02762221     4.14452083     1.25515698     2.20017067     0.36065880
O       2.23134424     4.80127324     3.96975681    -1.30150602    -1.28518490    -0.39904693
O       2.03291124     0.91144024     4.18273981    -0.73262506    -0.46159624    -1.49273805
O       3.88653321     2.89280221     3.12806383    -0.38101886     0.00745594     0.03556351
O       3.88601425    -0.82025178     3.16743779    -2.36843066     0.07398481    -0.89654298
O      -0.13855279     2.72755523     3.38467283     0.73283178     0.95161294    -0.79697234
O       0.00620021    -0.91418079     3.29237882     1.56832620     0.18545734    -0.84876903
O       5.69968899     6.76829302     1.78976398     1.28409296    -0.59391374    -2.33075499
O       5.72866002     2.71576702     1.46818201     0.47159577     1.42213116     1.48252769
O       2.00562199     6.70629001     1.38174800    -0.74923928     0.10741764     1.03031984
O       1.86393299     2.30814199     1.83557300    -0.41267609     1.40112499    -1.64546344
