# total energy = -4976.95612572 eV

CRYSTAL
PRIMVEC
        4.62822804     0.00000000     0.00000000
        0.00000000     2.41724663     0.00000000
        0.00000000    -0.00012750     6.44599008
PRIMCOORD
6 1
Ti      2.31411380     1.20855951     3.22299504     0.00000000     0.00000000     0.00000000
Ti      0.00000000     0.00000000     0.00000000     0.00000000     0.00000000     0.00000000
O       2.31411380     0.47106091     1.25622854     0.00000000    -0.13149526     1.98340936
O       2.31411380     1.94605816     5.18976159     0.00000000     0.13149526    -1.98340936
O       0.00000000     0.73744852     4.47922489     0.00000000     0.13150529     1.98924191
O       0.00000000     1.67967055     1.96676519     0.00000000    -0.13150529    -1.98924191
