# total energy = -19928.26433312 eV

CRYSTAL
PRIMVEC
        5.04162205     0.00000000     0.00000000
        2.52510876     4.73452766     0.00000000
        0.00000000     0.00000000     9.33756677
PRIMCOORD
24 1
Ti      3.32372264     2.80567671     3.46417069     4.95281119    -5.14891418     1.20831763
Ti      4.24300830     1.92885107     5.87339618    -4.95281119     5.14891418    -1.20831763
Ti      5.37680606     1.92885276     1.20457544   -10.41960691     2.66423002     2.21430146
Ti      2.18992505     2.80567524     8.13299148    10.41960691    -2.66423002    -2.21430146
Ti      2.06116846     0.43841304     1.20461290     4.95219155    -5.14938418    -1.20849478
Ti      5.50556259     4.29611493     8.13295408    -4.95219155     5.14938418     1.20849478
Ti      0.92737062     0.43841122     5.87335873    10.41870163    -2.66444676     2.21414976
Ti      6.63936042     4.29611670     3.46420810   -10.41870163     2.66444676    -2.21414976
O       2.48483898     1.66710771     4.76488887    -0.93873222     0.53654058    -1.49410177
O       5.08189203     3.06742011     4.57267800     0.93873222    -0.53654058     1.49410177
O       1.81427924     1.66712677     0.09613549     2.35016220     0.07563854    -2.04531409
O       5.75245183     3.06740109     9.24143109    -2.35016220    -0.07563854     2.04531409
O       3.81933774     0.70015625     0.09610518     0.93853991    -0.53652978    -1.49425706
O       3.74739325     4.03437152     9.24146139    -0.93853991     0.53652978     1.49425706
O       4.48989755     0.70013723     4.76491913    -2.35020745    -0.07549662    -2.04542799
O       3.07683341     4.03439060     4.57264770     2.35020745     0.07549662     2.04542799
O       1.71908806     2.87980808     2.52230974     0.37927668    -3.22833181    -2.63372798
O       5.84764295     1.85471974     6.81525709    -0.37927668     3.22833181     2.63372798
O       3.69316589     1.85467552     2.14650335     2.53253550    -2.35277624    -3.83505016
O       3.87356512     2.87985230     7.19106332    -2.53253550     2.35277624     3.83505016
O       0.45653378     0.51254422     2.14647355     0.37916150    -3.22818602     2.63368093
O       7.11019722     4.22198355     7.19109313    -0.37916150     3.22818602    -2.63368093
O       2.61101084     0.51258844     6.81528684    -2.53245631     2.35293667    -3.83518591
O       4.95572016     4.22193933     2.52227993     2.53245631    -2.35293667     3.83518591
