# total energy = -4983.73251792 eV

CRYSTAL
PRIMVEC
        4.22548292     0.00000000     0.00000000
        0.00000000     3.18774388     0.00000000
        0.00000000    -0.00008428     5.58885557
PRIMCOORD
6 1
Ti      2.11274140     1.59382963     2.79442784     0.00000000     0.00000000     0.00000000
Ti      0.00000000     0.00000000     0.00000000     0.00000000     0.00000000     0.00000000
O       2.11274140     0.62122784     1.08918566    -0.00000000    -0.13560132     1.89334899
O       2.11274140     2.56643142     4.49967002    -0.00000000     0.13560132    -1.89334899
O       0.00000000     0.97256828     3.88361466     0.00000000     0.13536246     1.89094578
O       0.00000000     2.21509098     1.70524103     0.00000000    -0.13536246    -1.89094578
