# total energy = -19073.09707942 eV

CRYSTAL
PRIMVEC
        5.93400000     0.00000000     0.00000000
        0.00000000     9.29699974     0.00000000
        0.00000000     0.00000000     4.64899994
PRIMCOORD
22 1
Ti      4.45780302     6.95870698     2.42230299    -1.57116907    -1.32898135     0.43518637
Ti      4.41626102     2.30786899     2.18153999     0.25095390    -0.16217548     0.31923780
Ti      1.47038900     7.18654202     2.57500100     1.38530524    -0.50347027     0.81337933
Ti      1.60906699     2.41251501     2.04339202    -0.60581075     0.59532784     0.57174722
Ti      2.98353002     4.65004200     4.45106098    -0.07138259     0.61746839     0.97233810
Ti      2.99928003     9.27957399     0.06064302     0.53133615    -0.13310529    -0.23650533
Ti      5.79999100     4.51729799     4.35628798    -0.01016229    -0.71101570     0.54652726
Ti      0.01880601     9.11026500     0.36402600    -0.61922960     0.66875369    -1.04721688
O       4.39493401     5.46501799     0.83957802     0.01248348     0.37439133     1.16513285
O       4.43785103     0.65756698     1.08748899     0.71179655     2.19399488     0.59742561
O       1.50745501     0.66066399     1.22043699    -0.32981172     1.31101859    -0.75274601
O       4.48148598     8.21705402     4.01354602    -0.05401556     1.33350392    -0.55770899
O       4.25455202     4.12660998     3.34724402     1.45873752    -2.56645582    -1.50470809
O       1.46840099     8.41942098     3.90503499    -0.37499116     0.69835430     0.02924091
O       1.48166100     3.98058701     3.36343801    -0.04757494    -0.33821898     0.63763588
O       2.95834102     6.28984302     3.47907901    -1.23675867    -0.72368662    -0.37269902
O       2.94548201     1.57708098     3.15181701     0.61723314    -0.84966969     1.82642932
O       0.03730700     6.23422602     3.46405101     0.40659440    -1.00850453    -0.43773150
O       2.98383101     7.97482901     1.70642602    -0.05264567    -0.51967131    -1.28585776
O       3.11167902     2.88572901     1.03524099    -0.67462610     2.13315047    -1.28555180
O       5.88120700     7.91573398     1.67748098     0.57397791    -0.82158989    -0.15369263
O       0.04084402     3.18697401     1.16363601    -0.30023940    -0.25941849    -0.27986263
