# total energy = -19930.20965066 eV

CRYSTAL
PRIMVEC
        6.09511898     0.00000000     0.00000000
        2.20303030     6.10151447     0.00000000
        0.00000000     0.00000000    11.08509350
PRIMCOORD
24 1
Ti      3.51470128     3.61575173     4.11249065     0.12195724    -2.40732633     0.78552630
Ti      4.78344822     2.48576258     6.97260298    -0.12195724     2.40732633    -0.78552630
Ti      6.15416396     2.48576465     1.43001191    -0.71577559    -0.88095951     0.21291930
Ti      2.14398557     3.61574983     9.65508184     0.71577559     0.88095951    -0.21291930
Ti      2.41318628     0.56499465     1.43005635     0.12195724    -2.40732633    -0.78552630
Ti      5.88496324     5.53651977     9.65503740    -0.12195724     2.40732633     0.78552630
Ti      1.04247045     0.56499241     6.97255854     0.71577559     0.88095951     0.21291930
Ti      7.25567908     5.53652208     4.11253509    -0.71577559    -0.88095951    -0.21291930
O       2.70486811     2.14844690     5.65663837     1.78903878     2.12437323    -0.82328271
O       5.59328139     3.95306741     5.42845526    -1.78903878    -2.12437323     0.82328271
O       1.89418484     2.14847151     0.11412728    -0.30885131    -0.51692562     1.33643421
O       6.40396473     3.95304284    10.97096604     0.30885131     0.51692562    -1.33643421
O       4.49176637     0.90231021     0.11409131    -1.78903878    -2.12437323    -0.82328271
O       3.80638313     5.19920409    10.97100201     1.78903878     2.12437323     0.82328271
O       5.30244971     0.90228559     5.65667434     0.30885131     0.51692562     1.33643421
O       2.99569973     5.19922872     5.42841929    -0.30885131    -0.51692562    -1.33643421
O       1.56145764     3.71128688     2.99436031     0.55599741     2.20212805     2.12092718
O       6.73669186     2.39022743     8.09073332    -0.55599741    -2.20212805    -2.12092718
O       4.13202332     2.39017059     2.54822174     0.87541210     1.77673399     1.01933248
O       4.16612618     3.71134371     8.53687170    -0.87541210    -1.77673399    -1.01933248
O       0.45994262     0.66052968     2.54818632     0.55599741     2.20212805    -2.12092718
O       7.83820688     5.44098462     8.53690712    -0.55599741    -2.20212805     2.12092718
O       3.06461116     0.66058652     8.09076861    -0.87541210    -1.77673399     1.01933248
O       5.23353834     5.44092778     2.99432495     0.87541210     1.77673399    -1.01933248
