# total energy = -19897.77331235 eV

CRYSTAL
PRIMVEC
        8.04311953     0.00000000     0.00000000
        0.00003165     5.70687421     0.00000000
        0.00000000     0.00000000    12.49602034
PRIMCOORD
24 1
Ti      2.91526286     3.38188835     4.63593442     0.55724079    -0.76258974     1.65690280
Ti      5.12788846     2.32498586     7.86008606    -0.55724079     0.76258974    -1.65690280
Ti      6.93668398     2.32498785     1.61202586     0.55703613     0.76242673    -1.65783919
Ti      1.10646734     3.38188663    10.88399468    -0.55703613    -0.76242673     1.65783919
Ti      2.91524704     0.52845138     1.61207596     0.55724079    -0.76258974    -1.65690280
Ti      5.12790428     5.17842303    10.88394459    -0.55724079     0.76258974     1.65690280
Ti      1.10645152     0.52844926     7.86003590    -0.55703613    -0.76242673    -1.65783919
Ti      6.93669980     5.17842516     4.63598451     0.55703613     0.76242673     1.65783919
O       2.54570932     2.00948745     6.37662355     0.66067503     1.52086928    -1.67255233
O       5.49744200     3.69738683     6.11939693    -0.66067503    -1.52086928     1.67255233
O       1.47591992     2.00951045     0.12865354    -0.66069482     1.52117035    -1.67321028
O       6.56723153     3.69736383    12.36736653     0.66069482    -1.52117035     1.67321028
O       5.49742624     0.84394965     0.12861297    -0.66067503    -1.52086928    -1.67255233
O       2.54572508     4.86292455    12.36740710     0.66067503     1.52086928     1.67255233
O       6.56721571     0.84392672     6.37666405     0.66069482    -1.52117035    -1.67321028
O       1.47593554     4.86294762     6.11935636    -0.66069482     1.52117035     1.67321028
O       0.29224455     3.47124440     3.37548686    -1.85817474     0.53599139     0.09068798
O       7.75090677     2.23562988     9.12053361     1.85817474    -0.53599139    -0.09068798
O       4.31381331     2.23557666     2.87256312    -1.85833363    -0.53570960    -0.09086616
O       3.72933801     3.47129761     9.62345715     1.85833363     0.53570960     0.09086616
O       0.29222872     0.61780722     2.87252317    -1.85817474     0.53599139    -0.09068798
O       7.75092260     5.08906698     9.62349703     1.85817474    -0.53599139     0.09068798
O       3.72932225     0.61786044     9.12057343     1.85833363     0.53570960    -0.09086616
O       4.31382907     5.08901384     3.37544698    -1.85833363    -0.53570960     0.09086616
