# total energy = -19897.83816133 eV

CRYSTAL
PRIMVEC
        6.83073679     0.00000000     0.00000000
        2.46891326     6.83790414     0.00000000
        0.00000000     0.00000000    12.42294962
PRIMCOORD
24 1
Ti      3.93888936     4.05213556     4.60882572    -0.40423079    -1.83476124     0.47500172
Ti      5.36076094     2.78576840     7.81412403     0.40423079     1.83476124    -0.47500172
Ti      6.89690789     2.78577073     1.60259955     0.23394708    -0.87407435    -0.05015401
Ti      2.40274245     4.05213343    10.82035034    -0.23394708     0.87407435     0.05015401
Ti      2.70443290     0.63318366     1.60264936    -0.40423079    -1.83476124    -0.47500172
Ti      6.59521742     6.20472043    10.82030053     0.40423079     1.83476124     0.47500172
Ti      1.16828585     0.63318115     7.81407422    -0.23394708     0.87407435    -0.05015401
Ti      8.13136449     6.20472302     4.60887553     0.23394708    -0.87407435     0.05015401
O       3.03131771     2.40774221     6.33933610     1.75896612     1.96257365    -0.67763069
O       6.26833259     4.43016175     6.08361365    -1.75896612    -1.96257365     0.67763069
O       2.12279335     2.40776979     0.12790126    -0.46641011    -0.39902019     1.31514058
O       7.17685703     4.43013422    12.29504815     0.46641011     0.39902019    -1.31514058
O       5.03387610     1.01120972     0.12786095    -1.75896612    -1.96257365    -0.67763069
O       4.26577420     5.82669424    12.29508846     1.75896612     1.96257365     0.67763069
O       5.94240053     1.01118213     6.33937641     0.46641011     0.39902019     1.31514058
O       3.35724970     5.82672184     6.08357334    -0.46641011    -0.39902019    -1.31514058
O       1.74990942     4.15920081     3.35574862     0.57709177     2.29602940     2.25165214
O       7.54974088     2.67870315     9.06720113    -0.57709177    -2.29602940    -2.25165214
O       4.63071579     2.67863945     2.85576574     0.51767433     1.97458842     1.39478927
O       4.66893451     4.15926451     9.56718381    -0.51767433    -1.97458842    -1.39478927
O       0.51545294     0.74024878     2.85572605     0.57709177     2.29602940    -2.25165214
O       8.78419736     6.09765518     9.56722350    -0.57709177    -2.29602940     2.25165214
O       3.43447802     0.74031248     9.06724069    -0.51767433    -1.97458842     1.39478927
O       5.86517228     6.09759148     3.35570900     0.51767433     1.97458842    -1.39478927
