# total energy = -19960.89024289 eV

CRYSTAL
PRIMVEC
        7.60600008     0.00000000     0.00000000
        0.00000000     7.60600008     0.00000000
       -1.89786986    -1.89786986     4.85670466
PRIMCOORD
24 1
Ti      3.66645501     6.72469998     1.27925102     0.23167679    -1.32943566     1.37243069
Ti      3.80286399     2.97215398     1.24676700     0.28352002     0.31921543    -0.73167684
Ti      0.05110900     6.58042700     1.19143898    -0.64848234    -0.58396228    -0.91497934
Ti      0.09673598     2.69917001     1.08579398    -0.93220959     1.36301043     1.11013539
Ti      5.73743521     2.79988625     3.59907079     0.90327541    -0.15916780     0.20196614
Ti      5.75895124    -1.06052677     3.54999579    -0.73929733     0.34170848    -0.18458085
Ti      1.93793123     2.98857821     3.66709579    -1.04246676    -0.93604902    -0.00315732
Ti      1.79849122    -0.94847878     3.76789580     1.05054311     0.79991574    -0.81122731
O       3.59004202     4.80878602     0.74463701     0.70507825     0.03746690     0.82550748
O       3.74718999     0.90775801     0.86119999    -0.06436682     1.81179536     0.39538645
O       0.21150098     4.63752701     0.69691702    -0.94743593     0.62791170    -0.36895421
O       0.15772498     0.87746399     0.80363403    -0.30975377     0.17458851    -0.25843376
O       5.85354522     4.75011820     4.05450979    -0.49745028    -0.60549836     0.10218930
O       5.65051620     0.82394824     3.88428982    -0.27805514     0.89107707     0.90599101
O       1.69556122     4.82969921     4.22054381     0.21346926    -0.56214826    -1.66024112
O       1.92236421     1.05111022     4.19057179     0.16592183    -0.94807973    -1.24782702
O       3.80665925     3.06134024     3.14080880    -0.46951395    -0.10955552     1.91641590
O       3.67795424    -1.11131980     3.20270280     0.51061125     0.39856613     0.50849472
O      -0.03588880     2.91082122     3.08762183     0.36345899    -0.50697468     0.74004758
O       0.01402124    -0.80055580     3.17444383     0.17878635    -0.24825887     0.84700474
O       5.77306000     6.51507398     1.66576002    -1.20630369    -0.04827428    -0.65227137
O       5.69023799     2.89898300     1.66761098    -0.02231461    -0.29125005    -1.49626844
O       1.80303998     6.54099398     1.64887900     1.48475041     0.40116938     0.48973234
O       1.84509301     2.98229598     1.74274902     1.06655826    -0.83777036    -1.08568419
