# total energy = -19516.48198316 eV

CRYSTAL
PRIMVEC
        5.93400000     0.00000000     0.00000000
        0.00000000     9.29699974     0.00000000
        0.00000000     0.00000000     4.64899994
PRIMCOORD
23 1
Ti      4.53399502     6.84658400     2.27060099     0.30919584     1.02288060     0.34852319
Ti      4.44482299     2.28976398     2.35710200     0.09161050    -0.17342123     0.84122876
Ti      1.48161502     7.08864201     2.35417999     1.11416509    -0.26440181    -0.31217369
Ti      1.39322601     2.44267398     2.29997499     0.30661831    -0.96068611     0.28530514
Ti      2.95044300     4.60220401     0.10539697    -0.10842449     0.36479494    -0.41105039
Ti      3.01498400     0.01640502     4.56206798    -0.29740193    -0.87858304    -0.21802114
Ti      0.02720098     4.66150700     0.01801801    -0.19524579     0.01899403    -0.41341169
Ti      0.02352002     9.27067000     0.14950199     0.36414445     0.65914933    -1.27893532
O       4.36520002     5.69710502     0.77289899     0.12262650    -0.90100693    -0.48486833
O       4.38827998     0.92274198     0.77720199     0.46868117    -0.22098203     0.84170698
O       1.52076397     5.60532002     0.99530499     0.36707062    -0.97343724    -1.01307956
O       1.47341399     0.98641502     1.03373702    -0.31543771    -1.04074901    -1.14413825
O       4.45986998     8.24755998     3.47100201    -0.92496987     1.19357775     2.37305762
O       4.54023698     3.74092898     3.62529301    -0.88630150     0.95129001     0.50901331
O       1.45466698     8.38608900     3.70498498     0.27373234     0.43276053     0.77712805
O       1.39967801     3.60585500     3.91726698     0.30251431     0.88689697    -1.44350475
O       2.88998899     1.63092503     3.29161198     0.04956729    -1.24559350    -0.23822565
O       0.08807002     6.00062802     3.24726302    -0.15437886     0.18186911    -0.38992568
O       5.80036698     1.20486098     3.23890101     0.47658294     1.73745189    -0.87377534
O       2.98552401     7.83674999     1.29974802    -0.24718852     0.03474179     0.64215305
O       3.03411899     3.31240299     1.23301702    -0.46606636    -1.83351399     2.42458306
O       0.09445301     7.73363002     1.45459502    -1.28363119     1.73763572    -1.83743159
O       5.79459799     3.30896699     1.36485201     0.63253686    -0.72966752     1.01584221
