# total energy = -19910.56221178 eV

CRYSTAL
PRIMVEC
        6.54937373     0.00000000     0.00000000
        0.34834392     6.96180467     0.00000000
        0.00000000     0.00000000    11.72560420
PRIMCOORD
24 1
Ti      2.58026116     4.12555883     4.35011553    -0.03547327    -1.12992904     0.66161014
Ti      4.31745621     2.83624558     7.37548881     0.03547327     1.12992904    -0.66161014
Ti      5.79032739     2.83624796     1.51263978     0.13146338     0.66482942    -0.58985216
Ti      1.10739006     4.12555672    10.21296469    -0.13146338    -0.66482942     0.58985216
Ti      2.40608934     0.64465676     1.51268678    -0.03547327    -1.12992904    -0.66161014
Ti      4.49162803     6.31714785    10.21291770     0.03547327     1.12992904     0.66161014
Ti      0.93321823     0.64465418     7.37544175    -0.13146338    -0.66482942    -0.58985216
Ti      5.96449922     6.31715043     4.35016259     0.13146338     0.66482942     0.58985216
O       2.19557585     2.45136967     5.98348608     1.51115950     1.48378830    -0.14621612
O       4.70214152     4.51043474     5.74211826    -1.51115950    -1.48378830     0.14621612
O       1.32446620     2.45139776     0.12072166    -1.30344103     1.11987756     0.15395643
O       5.57325124     4.51040671    11.60488234     1.30344103    -1.11987756    -0.15395643
O       4.52796970     1.02953247     0.12068364    -1.51115950    -1.48378830    -0.14621612
O       2.36974767     5.93227194    11.60492037     1.51115950     1.48378830     0.14621612
O       5.39907942     1.02950444     5.98352416     1.30344103    -1.11987756     0.15395643
O       1.49863789     5.93230010     5.74208017    -1.30344103     1.11987756    -0.15395643
O       0.44983640     4.23456409     3.16737828     0.48914793     0.06536312     0.59718778
O       6.44788104     2.72724032     8.55822613    -0.48914793    -0.06536312    -0.59718778
O       3.64911179     2.72717545     2.69546118     0.51242259     0.61788311    -0.07231642
O       3.24860565     4.23462896     9.03014296    -0.51242259    -0.61788311     0.07231642
O       0.27566458     0.75366182     2.69542376     0.48914793     0.06536312    -0.59718778
O       6.62205286     6.20814259     9.03018038    -0.48914793    -0.06536312     0.59718778
O       3.07443382     0.75372668     8.55826348    -0.51242259    -0.61788311    -0.07231642
O       3.82328361     6.20807772     3.16734079     0.51242259     0.61788311     0.07231642
