# total energy = -19072.92811774 eV

CRYSTAL
PRIMVEC
        7.60600008     0.00000000     0.00000000
        0.00000000     7.60600008     0.00000000
       -1.89786986    -1.89786986     4.85670466
PRIMCOORD
22 1
Ti      3.63250501     6.78242899     0.85704902     1.23851654     0.48684345     1.39495717
Ti      4.07990701     3.05468901     1.19056901     0.53742349    -1.12805110     0.84496714
Ti     -0.16500302     6.51653700     1.13544599    -0.70358727    -0.34705123     0.33523932
Ti      0.20047901     2.71162298     1.19272700    -0.98046381    -0.62000196    -0.06729042
Ti      5.93684624     2.71967922     3.71097379    -0.02501530     0.24616574    -0.37203285
Ti      5.46097920    -1.21898377     3.74682079     1.33451025     1.19728991    -1.18643702
Ti      2.11169224     2.81441523     3.44281581     0.15760405     0.02820347     1.48832038
Ti      1.12716421    -0.48635178     3.79890183    -1.04923725    -2.26850213     0.59677178
O       3.98423002     4.81502301     0.70627398    -0.73248828     1.36229592    -0.48120630
O       3.92471102     0.98840399     1.03995802    -1.33430533     0.39031983    -0.32609853
O       0.03906498     4.51319502     0.91478199     0.18912990     1.50198143    -1.23907729
O       6.83591399     0.99176702     0.63874901     0.61787926    -0.84857903     0.41036364
O      -1.58737580     4.62647022     4.12816983    -0.00164859    -0.14883762    -0.32221282
O      -1.10441075     0.31796922     4.19707781     1.25296794     0.88251478    -0.34134467
O       1.65297822     5.09245625     3.95887984    -0.22627799    -0.49929685    -0.62616824
O       2.30097820     0.86543420     4.08924382     0.24612511     1.40254527    -0.22982663
O       3.96501422     2.79028824     3.34604781     0.63161152     0.31170858    -0.27664155
O       0.24537923     2.45423222     3.29428084    -0.46468747     0.23197967    -0.88829230
O       5.67834601     6.57159202     1.59773498    -1.69617564    -0.46761159     1.61462536
O       5.87051598     3.11663000     1.79824002    -0.14986683    -0.87266256     0.20660313
O       1.49954100    -0.73364002     2.01506299     0.82612506     0.27330940    -1.13740838
O       2.08812898     3.16326401     1.56716102     0.33186115    -1.11456335     0.60218986
