# total energy = -19517.39515857 eV

CRYSTAL
PRIMVEC
        5.93400000     0.00000000     0.00000000
        0.00000000     9.29699974     0.00000000
        0.00000000     0.00000000     4.64899994
PRIMCOORD
23 1
Ti      4.62296300     7.28699002     2.20148600     0.95446841    -1.59932343     0.49902688
Ti      4.38175501     2.20117902     2.37201099    -0.94315169     0.10482623     0.04217099
Ti      1.53457698     6.96372802     2.19666398    -2.64475468     0.13368687     0.87825651
Ti      1.36478200     2.31891498     2.26494599     0.88379441     0.16268713     0.16970984
Ti      3.04092897     4.44220499     0.06629802    -0.36510681    -0.26470005     0.90492195
Ti      2.93486799     9.11102500     4.64051300    -0.76850251     0.69062479    -1.29205695
Ti      0.06158798     4.73265800     0.08840499    -0.40290461     0.52033182    -1.18970412
Ti      5.89689801     0.16528899     0.02612098     1.32047151    -0.97388719    -0.37647649
O       4.28791701     5.76898100     0.93566200    -0.11287301    -1.42054762    -0.72252268
O       4.46580503     0.78983102     0.98218102    -0.18494158     0.75684178     0.03273504
O       1.55232601     5.52377000     0.85046399     0.36848653     1.29572540     1.02022388
O       1.56114501     0.84801803     0.87318501    -1.14659494     1.01063366     0.69203067
O       4.48454499     8.14689300     3.90120603    -0.39321952     1.22480124    -0.24707462
O       4.27794001     3.68044100     3.59442202     0.56767845     1.12079699     1.07110423
O       1.48450798     8.32551398     3.77873002     0.45655404    -0.57234320    -0.19169021
O       1.37965902     3.78480799     3.73582300     0.66949006    -0.29818200    -0.49709496
O       2.93986803     1.29406899     3.29791703     0.27653150     0.56993151    -0.60342888
O       0.03130602     6.16219002     3.27330002     0.05973626    -0.27356522    -0.94346151
O       0.02479000     1.33926300     3.21118302    -0.59498486     0.31955816    -0.14251656
O       2.96486599     8.01851698     1.63588500     0.22198707    -0.64363529    -0.00639819
O       2.87430101     3.14423601     1.38235798     0.65584264     0.22626205    -0.28407152
O       0.13214202     7.97733202     1.35055898     0.76349605    -0.64867877     0.78052345
O       5.79073198     3.40572398     1.40388502     0.35849779    -1.44184433     0.40579299
