# total energy = -19074.12626558 eV

CRYSTAL
PRIMVEC
        7.60600008     0.00000000     0.00000000
        0.00000000     7.60600008     0.00000000
       -1.89786986    -1.89786986     4.85670466
PRIMCOORD
22 1
Ti      3.79081701     6.57337201     1.04511300     0.10132387     0.16324737     1.89305357
Ti      3.65392203     2.76762199     1.44045799    -0.16281980     0.35040447    -1.04407010
Ti     -0.05291201     6.84782201     1.18751100     1.67659180    -0.43158065    -1.38239218
Ti     -0.32931298     2.99689799     1.39152000     0.89766501     0.90232847    -1.03085643
Ti      5.51034620     2.98611521     3.69408182     0.29912662     1.11278800     1.53930229
Ti      5.93480822    -0.90159579     3.45880982    -2.39476365    -1.96028717     1.08757576
Ti      1.73454724     2.74698424     3.74159680    -0.12566606    -0.45204844    -0.70427375
Ti      2.01662523    -0.91056477     3.59663679    -0.39932872     0.18013207     0.42039789
O       3.54276999     4.71781902     0.78560803     0.27124377    -0.53741527     0.22257251
O       4.13099802     1.01559798     1.07140602    -0.94243461    -1.04234926    -1.07932200
O      -0.22335699     4.87221702     0.85906799     1.45998245    -1.79742803    -0.62338708
O      -0.08297600     1.19529398     0.45858998    -0.73974393     0.32798598     1.79261570
O       5.99525021     4.77103325     3.93598980    -0.88273178     2.01719136     1.35835956
O       0.00079721    -0.53505477     3.25248779     2.22925603     0.37116176    -1.11343309
O       1.82580524     4.64311623     4.09410479     0.12041123     2.59467394    -1.47296909
O       2.12843721     0.86797621     4.01248782    -0.34825734     0.11837286     0.28298600
O       3.68939124     2.93055223     3.37476282    -0.73380751    -0.79671523     0.21492579
O      -0.28038377     2.74028523     3.29940682     1.95763096    -1.35694391    -0.51285428
O       5.80387299     6.39856201     1.51131599    -2.45701600     1.54283036     0.52681898
O       5.43344701     3.34839498     1.74246897     1.69505952    -1.15003070    -0.30580455
O       1.96604398     6.57308202     1.67202098     0.07228685     0.61629109     0.25064486
O       1.83908399     3.00408501     1.78457100    -1.59400922    -0.77260882    -0.31988983
