# total energy = -19953.21096446 eV

CRYSTAL
PRIMVEC
        5.03347333     0.00000000     0.00000000
        1.31870587     5.19229615     0.00000000
        0.00000000     0.00000000     9.08113026
PRIMCOORD
24 1
Ti      2.60585592     3.07695004     3.36903473     1.82728781    -1.68142676     0.85052613
Ti      3.74632343     2.11534645     5.71209604    -1.82728781     1.68142676    -0.85052613
Ti      4.87828817     2.11534824     1.17149440    -3.28485547    -0.25879860     1.43881223
Ti      1.47389120     3.07694845     7.90963647     3.28485547     0.25879860    -1.43881223
Ti      1.94650309     0.48080201     1.17153081     1.82695176    -1.67693067    -0.85077809
Ti      4.40567628     4.71149469     7.90960006    -1.82695176     1.67693067     0.85077809
Ti      0.81453827     0.48080001     5.71205963     3.28414765     0.26172272     1.43917861
Ti      5.53764109     4.71149663     3.36907114    -3.28414765    -0.26172272    -1.43917861
O       2.05746485     1.82829586     4.63403148    -0.41431492     0.26100229    -0.77893399
O       4.29471445     3.36400064     4.44709930     0.41431492    -0.26100229     0.77893399
O       1.38798412     1.82831681     0.09349535     0.85765631    -0.80069916     0.08597489
O       4.96419530     3.36397978     8.98763517    -0.85765631     0.80069916    -0.08597489
O       3.63536160     0.76785245     0.09346589     0.41357392    -0.26173429    -0.77884272
O       2.71681775     4.42444404     8.98766463    -0.41357392     0.26173429     0.77884272
O       4.30484244     0.76783154     4.63406094    -0.85718400     0.80038317     0.08580109
O       2.04733686     4.42446501     4.44706983     0.85718400    -0.80038317    -0.08580109
O       0.98498939     3.15824897     2.45303998    -0.32538248    -0.61723854    -0.92776981
O       5.36718991     2.03404753     6.62809079     0.32538248     0.61723854     0.92776981
O       3.21620638     2.03399911     2.08755431     1.15028884    -1.06423322    -1.38995920
O       3.13597298     3.15829744     6.99357631    -1.15028884     1.06423322     1.38995920
O       0.32563654     0.56210078     2.08752530    -0.32524801    -0.61695572     0.92772173
O       6.02654281     4.63019576     6.99360532     0.32524801     0.61695572    -0.92772173
O       2.47662013     0.56214920     6.62811975    -1.15034592     1.06379304    -1.38981136
O       3.87555922     4.63014730     2.45301098     1.15034592    -1.06379304     1.38981136
