# total energy = -19953.74617003 eV

CRYSTAL
PRIMVEC
        6.06339383     0.00000000     0.00000000
        0.00002819     5.27996035     0.00000000
        0.00000000     0.00000000     9.96523597
PRIMCOORD
24 1
Ti      2.19770533     3.12889951     3.69703160     0.14308040    -0.10095595    -0.06180780
Ti      3.86571676     2.15106062     6.26820477    -0.14308040     0.10095595     0.06180780
Ti      5.22929719     2.15106233     1.28554677     0.14390213     0.10089964     0.06215541
Ti      0.83412489     3.12889797     8.67968971    -0.14390213    -0.10089964    -0.06215541
Ti      2.19769146     0.48891944     1.28558673     0.14278601    -0.12008419     0.06210605
Ti      3.86573063     4.79104085     8.67964975    -0.14278601     0.12008419    -0.06210605
Ti      0.83411102     0.48891751     6.26816481    -0.14391781    -0.12057913     0.06146044
Ti      5.22931106     4.79104273     3.69707155     0.14391781     0.12057913    -0.06146044
O       1.91911238     1.85916372     5.08518379     0.83189462     0.57241776    -0.11382818
O       4.14430971     3.42079641     4.88005258    -0.83189462    -0.57241776     0.11382818
O       1.11263983     1.85918506     0.10259770    -0.83096671     0.57179941    -0.11396985
O       4.95078231     3.42077513     9.86263838     0.83096671    -0.57179941     0.11396985
O       4.14429584     0.78081618     0.10256535    -0.83134955    -0.57237328    -0.11363432
O       1.91912625     4.49914395     9.86267073     0.83134955     0.57237328     0.11363432
O       4.95076838     0.78079490     5.08521614     0.83027894    -0.57165260    -0.11362815
O       1.11265359     4.49916529     4.88002023    -0.83027894     0.57165260     0.11362815
O       0.22031416     3.21157122     2.69185895    -0.30403126    -0.07038655     0.20427885
O       5.84310792     2.06838891     7.27337742     0.30403126     0.07038655    -0.20427885
O       3.25201715     2.06833984     2.29079094    -0.30524225     0.07032098    -0.20364713
O       2.81140494     3.21162029     7.67444526     0.30524225    -0.07032098     0.20364713
O       0.22030024     0.57159098     2.29075910    -0.30367105    -0.07036855    -0.20384793
O       5.84312185     4.70836915     7.67447710     0.30367105     0.07036855     0.20384793
O       2.81139101     0.57164005     7.27340921     0.30512064    -0.07025233    -0.20381065
O       3.25203108     4.70832007     2.69182710    -0.30512064     0.07025233     0.20381065
