# total energy = -4968.95623255 eV

CRYSTAL
PRIMVEC
        4.56377785     0.00000000     0.00000000
       -0.00000691     2.73826671     0.00000000
       -2.28191463    -1.36918331     4.97015093
PRIMCOORD
6 1
Ti     -0.00019562     2.05379737     1.24253740    -0.01326073    -0.01923160    24.43021195
Ti      2.28205178    -0.68471406     3.72761292     0.01326073     0.01923160   -24.43021195
O       0.00004833     0.68455788     0.80959687     0.01175149     0.01431616   -14.98903485
O       2.28180773     0.68452537     4.16055350    -0.01175149    -0.01431616    14.98903485
O      -0.00001880    -0.68456700     3.29467233    -0.00190390    -0.00003394    -0.79901740
O       2.28187481     2.05365020     1.67547799     0.00190390     0.00003394     0.79901740
