# total energy = -19914.85737568 eV

CRYSTAL
PRIMVEC
        7.35474452     0.00000000     0.00000000
        0.00002409     3.35471659     0.00000000
        0.00000000     0.00000000    11.19334633
PRIMCOORD
24 1
Ti      2.66575530     1.98800196     4.15265166    -0.44397826     0.34370340     1.18061321
Ti      4.68901299     1.36671469     7.04069483     0.44397826    -0.34370340    -1.18061321
Ti      6.34300168     1.36671583     1.44397682    -0.44214172    -0.34404176    -1.17987814
Ti      1.01176661     1.98800093     9.74936978     0.44214172     0.34404176     1.17987814
Ti      2.66574342     0.31064372     1.44402172    -0.44397826     0.34370340    -1.18061321
Ti      4.68902487     3.04407298     9.74932487     0.44397826    -0.34370340     1.18061321
Ti      1.01175472     0.31064247     7.04064993     0.44214172     0.34404176    -1.17987814
Ti      6.34301356     3.04407423     4.15269656    -0.44214172    -0.34404176     1.17987814
O       2.32783147     1.18125273     5.71187899     4.49471165    -0.35575673     0.75416166
O       5.02693681     2.17346386     5.48146749    -4.49471165     0.35575673    -0.75416166
O       1.34960058     1.18126626     0.11524176    -4.49323250    -0.35607761     0.75298821
O       6.00516776     2.17345038    11.07810440     4.49323250     0.35607761    -0.75298821
O       5.02692499     0.49610557     0.11520545    -4.49471165     0.35575673     0.75416166
O       2.32784330     2.85861108    11.07814071     4.49471165    -0.35575673    -0.75416166
O       6.00515593     0.49609203     5.71191530     4.49323250     0.35607761     0.75298821
O       1.34961230     2.85862461     5.48143119    -4.49323250    -0.35607761    -0.75298821
O       0.26722942     2.04052879     3.02360212     0.11563181    -0.20567547     0.47900390
O       7.08753887     1.31418781     8.16974437    -0.11563181     0.20567547    -0.47900390
O       3.94461103     1.31415655     2.57310671     0.11855541     0.20556672    -0.47908411
O       3.41015725     2.04056010     8.62023962    -0.11855541    -0.20556672     0.47908411
O       0.26721759     0.36317049     2.57307099     0.11563181    -0.20567547    -0.47900390
O       7.08755070     2.99154616     8.62027534    -0.11563181     0.20567547     0.47900390
O       3.41014542     0.36320174     8.16978004    -0.11855541    -0.20556672    -0.47908411
O       3.94462286     2.99151490     3.02356640     0.11855541     0.20556672     0.47908411
