# total energy = -19960.82893929 eV

CRYSTAL
PRIMVEC
        7.60600008     0.00000000     0.00000000
        0.00000000     7.60600008     0.00000000
       -1.89786986    -1.89786986     4.85670466
PRIMCOORD
24 1
Ti      3.74758301     6.66982002     1.24624301     0.58903507    -0.91354055    -0.78463490
Ti      3.83292502     2.87966797     1.25165200    -0.09947010     1.20386165    -0.98737700
Ti     -0.04134298     6.56504700     1.19232498    -0.51126920     0.37875192    -0.89248423
Ti      0.06002600     2.80464498     1.22887203    -0.11287456    -0.23499403     0.58768164
Ti      5.75631424     2.71059124     3.61754982    -0.13885736     2.05875711     0.44979898
Ti      5.70337720    -0.96685578     3.64214482    -0.06193867    -2.40051187     0.13381800
Ti      1.87238125     2.94858320     3.55077183     0.86283889    -0.44489151     1.33492780
Ti      1.82919822    -0.92938480     3.61451483     0.06543691     0.49894641     0.57292916
O       3.86238802     4.82244599     0.69932001    -0.03438080     0.13008296     0.95715907
O       3.81416600     1.04369698     0.76607001     0.20302904    -0.70669908     0.44117344
O      -0.02050901     4.70348599     0.72515201    -0.00463544    -0.42721826    -0.21219194
O      -0.18509498     0.88293399     0.88733500     0.51584628    -0.14896334    -0.13524805
O       5.66685625     4.66036122     4.06356983     0.31083235     0.51363975     0.43700851
O       5.94485925     0.76809120     4.21528881    -0.16880353     2.17410404    -2.13474404
O       1.85018523     4.75721823     4.04964882     0.39960949     1.66627807     0.44112613
O       1.69267525     1.05986821     4.06540883     0.85377523    -1.13077005    -0.34378259
O       3.80191221     3.01137723     3.24857680     1.22460069    -1.34955995    -0.97082552
O       3.85084423    -0.96135578     3.20649382    -1.21388330     0.49130869    -0.06583698
O       0.06376824     3.00529222     3.22581779    -1.60158189    -0.70858138    -0.18330712
O       0.03724021    -1.12511778     3.31345282    -0.79089579     0.27461449    -0.57818449
O       5.70492102     6.48179699     1.67562701    -0.04071883     0.70961574     0.22120469
O       5.83289598     2.92402298     1.63006802    -1.93233387    -0.44372038     0.47046320
O       1.82101301     6.71794699     1.60369499     1.32400086    -0.05315835     0.44706153
O       1.93230697     3.15276201     1.54071602     0.36263804    -1.13735182     0.79426471
