# total energy = -19520.00614005 eV

CRYSTAL
PRIMVEC
        5.17575250     0.00001323     0.00000000
        0.00001429     5.50856584     0.00000000
        0.00000000     0.00000000     9.26345890
PRIMCOORD
23 1
Ti      1.84423784     3.38024278     3.40744654     0.01861942     0.00268603    -0.03764868
Ti      3.37880874     2.17344201     5.76922099    -0.02133168    -0.02868375     0.00252045
Ti      4.56814897     1.94483772     1.42756286     0.02135276     0.02742031    -0.02446226
Ti      0.85034230     3.30341072     7.94566114     0.01529293     0.02506492     0.01636559
Ti      2.02273487     0.50109102     1.24546974    -0.02262546    -0.03739825     0.00985967
Ti      3.16190283     5.15970037     7.91515115    -0.02693592     0.04388001     0.01921592
Ti      0.62630829     0.71507087     5.65112358     0.00713404    -0.04041441     0.02494460
Ti      4.56844753     4.83827454     3.56750580     0.00879420    -0.01975276     0.00527951
O       1.54064682     1.94943367     4.65403646    -0.00614725     0.01544462     0.02836673
O       3.57384910     3.52814146     4.50878853    -0.01440410    -0.02121752     0.01053690
O       0.73478672     2.10833455     0.10240524     0.00774545     0.02084985    -0.02170398
O       3.52279938     0.87855164     0.07921141     0.04283485    -0.01613753    -0.01211787
O       1.70802846     4.69390474     9.15075479    -0.01173400     0.02747456    -0.01831655
O       4.06424289     0.77360940     4.69536890     0.01846927     0.01931156     0.04107005
O       1.03100045     4.63580889     4.62245407    -0.02597458    -0.00233945    -0.01435705
O       0.17447397     3.35934183     2.40222611     0.01173092     0.01453317    -0.00868828
O       4.94892624     2.14113059     6.83599482    -0.02568019     0.00844942    -0.01394361
O       2.78252934     2.13598345     2.10298368    -0.02646129    -0.02433910    -0.01636842
O       2.48725735     3.40667617     7.13808266     0.00322288    -0.00836843     0.00974243
O       0.26126114     0.54389640     2.19122413     0.03152816    -0.01070094     0.03982177
O       4.89947228     4.76809683     7.37034616     0.02514463    -0.01605063    -0.02829474
O       2.32879648     0.72572801     6.75001031    -0.03814182     0.02836236     0.00246826
O       2.80418590     4.86934751     2.46039395     0.00756676    -0.00807404    -0.01429045
