# total energy = -4900.04046997 eV

CRYSTAL
PRIMVEC
        5.40427382     0.00000000     0.00000000
       -0.00000701     2.04989668     0.00000000
       -2.70216931    -1.02504564     5.96437576
PRIMCOORD
6 1
Ti     -0.00023092     1.53748052     1.49109368    -0.05102613    -0.03881570    91.54756975
Ti      2.70232846    -0.51262974     4.47328161     0.05102613     0.03881570   -91.54756975
O       0.00005737     0.51245786     0.97154799     0.04902761     0.03970505   -85.54842126
O       2.70204002     0.51239287     4.99282735    -0.04902761    -0.03970505    85.54842126
O      -0.00002343    -0.51251432     3.95373587    -0.00092200    -0.00008408    -0.38918829
O       2.70212072     1.53736499     2.01063947     0.00092200     0.00008408     0.38918829
