# total energy = -39034.55485380 eV

CRYSTAL
PRIMVEC
        7.60600008     0.00000000     0.00000000
        0.00000000     7.60600008     0.00000000
       -3.79573973    -3.79573973     9.71340985
PRIMCOORD
46 1
Ti      1.91329745     4.83503644     6.14838860    -0.65849345    -1.22770504     1.95117080
Ti      3.70039199     6.95567400     1.13505599     0.98824218    -0.45560068    -0.34851471
Ti      2.11117047     0.63382745     6.05675161    -0.16779334     1.49114963     0.01841682
Ti      3.65257998     2.75161301     1.29622100    -0.23375913     2.07620051    -0.15769224
Ti     -1.90645455     4.78571643     6.04735162     0.42530433    -0.50718731    -0.45786762
Ti     -0.14335602     6.74889201     1.19413397     0.33579828     0.84983399     0.10517564
Ti     -1.86137357     0.97848546     6.13503761    -0.24251734     0.19082580     0.21738660
Ti     -0.21087502     2.91176099     1.20055602     1.54633632    -0.25208390    -0.90150881
Ti      3.87616546     0.96210547     8.47726460     0.38522262     1.48261330     0.59654809
Ti      5.74386101     2.83215500     3.62407802    -0.67577641     0.76059996     1.23784445
Ti      4.03527943    -2.66117455     8.49590164    -1.47676918    -2.60287936    -0.96707710
Ti      5.61272501    -0.85915102     3.69790697     0.81960860    -1.10262288     0.26780929
Ti      0.07935447     0.87737646     8.21156862    -0.00308661     0.79012343     4.35341611
Ti      1.84482302     2.64182900     3.50826900     0.33130271     0.13683956     0.90560972
Ti      0.03786046    -2.71660153     8.41573261     1.95398051    -1.60465693     0.56431390
Ti      1.83985198    -1.21106399     3.71735598     0.13884991     0.93340181    -1.21981690
O       1.62104243    -1.04562355     5.60104660    -0.50494608    -0.80263571     0.41698758
O       3.51566098     1.12687798     0.68293102     0.36622139    -2.44630015     0.34042961
O      -2.01369957     2.84424046     5.77133160     0.09694991     0.01318154    -1.12233117
O      -0.10806302     4.91024602     0.82002302    -0.31265475    -1.24268147    -0.70290490
O      -1.73877357    -0.89890853     5.78877561     0.18555530    -1.93384336    -0.40426653
O      -0.12920699     0.98848897     0.64707000     0.32084114     1.65073549     1.51877871
O       3.86820743     3.08784546     8.86528562    -0.04920630    -2.97560924    -0.03124766
O       5.89369601     4.72110199     4.07367002    -0.38553552    -0.16600308    -0.03504955
O       4.05707048    -0.87888954     8.91142961     0.00202834     1.31545914     0.45949256
O       5.81032001     0.92496199     4.25927201    -0.25349133     1.49028214    -2.21276702
O       0.10840043     2.87524744     9.04608564     0.06078373    -1.71247335     0.08816367
O       1.91089001     4.49010500     4.33411101    -0.55725905    -0.46024898    -2.13796923
O      -0.18011654    -0.96413555     8.77676961     0.53626676     3.07038734     0.56368167
O       1.91164398     0.84416498     4.12785301     0.16520372     1.00860198    -0.43856788
O       2.05903646     0.67439746     8.01717462    -0.50971676     0.82170559     0.64133930
O       3.66157398     2.90176901     3.24206702     2.08961756    -0.28332899    -0.42887996
O       1.90431043    -2.78589957     8.14491562     1.01690073     0.65518906    -0.21529835
O       3.80655998    -1.13208799     3.63728898    -1.04230864     0.23704217    -0.91601575
O      -1.79618756     1.10459247     8.07647062    -0.99056877     0.02926096     0.57901470
O       0.04133599     2.88402802     3.09035402    -2.30156704    -0.25486070     0.69721350
O      -1.73127957    -2.95043157     7.97321560    -3.46059635     0.45052995     0.33778883
O      -0.04943002    -0.82562901     3.16525499     0.81190351    -0.84510932    -0.15652111
O       3.74489744     4.74697642     6.41738262     1.71997249     0.34910606     0.58290915
O       5.55663900    -0.61914299     1.71144601    -0.02511480    -0.62995162     0.19974548
O       3.90038443     0.52011842     6.42527160    -0.07288643     1.08270840     0.44026353
O       5.61981101     2.65114199     1.61082502    -0.64614957     0.77604767     0.56082337
O       0.06484247     4.43750944     6.60394263     0.35607427     0.11895676    -2.22819442
O       1.97669299     6.83678798     1.63993501    -1.35915891    -1.23550706     0.89703329
O       0.09173145     0.91156242     6.53025761     0.61529298     0.48253916    -3.62397176
O       1.78962200     2.85631300     1.53830599     0.66109875     0.47796646     0.16510654
