# total energy = -19957.74258437 eV

CRYSTAL
PRIMVEC
        5.93400000     0.00000000     0.00000000
        0.00000000     9.29699974     0.00000000
        0.00000000     0.00000000     4.64899994
PRIMCOORD
24 1
Ti      4.41490500     7.01655298     2.20054502     4.39354462     1.01215190     0.45666357
Ti      4.47919702     2.59832099     2.46648098    -1.02119396    -3.75393825    -2.32482936
Ti      1.52082901     6.72374900     2.30031800    -1.78131595     2.81441721     0.30483987
Ti      1.50113102     2.39131400     2.47223499     1.01443684    -2.45986427    -1.77495838
Ti      2.95218701     4.79376099     4.63909099     0.76563830     0.33349457     1.74462501
Ti      2.94194002     9.05348301     0.04500002     0.53553219     1.62402840     0.35322805
Ti      0.06327801     4.56679999     4.58330402    -0.80525875     1.18223790     1.07154261
Ti      5.90715701     0.03960400     4.54536799    -0.14756724    -0.04697561     2.52251770
O       4.50225602     5.70450901     0.84850201    -0.33511154    -2.61157021    -1.84570848
O       4.49268099     0.59859102     1.07134300    -1.66262582     1.35077171    -1.30134506
O       1.43057503     5.76280598     0.66948198     0.22143686    -1.22734097    -0.30578141
O       1.27257699     0.75688899     1.11892799     1.98571924     0.70325534    -0.83144082
O       4.56767202     8.27066602     3.68523498    -2.08943373     0.68371726     0.53820203
O       4.35172499     3.80391599     3.69845102     0.90995334     1.56324056     1.58148460
O       1.35721201     8.19932902     3.90111898     2.11368695     0.24759244    -1.23865203
O       1.53902398     3.84983202     3.74418099    -0.42861643    -0.08171200     0.00387337
O       3.10951998     6.03320899     3.23891498    -1.35314638    -0.13795439    -0.61344899
O       2.93785101     1.63696500     3.33613902     0.56952090    -0.89575519    -0.00623904
O       0.12104702     5.88171501     2.88484798    -1.16777801    -1.25863645     2.19974746
O       5.91926099     1.59559202     3.37634400    -0.94073203     0.79463958    -0.54263538
O       3.04501200     7.79429902     1.39596202    -2.21552247     0.56537500    -0.59405798
O       2.75077098     3.30166498     1.36175701     1.72811878     0.43292508     0.18190870
O       5.89612599     7.87767497     1.38747798     0.69054329    -1.35129570     1.12365040
O       0.03208899     3.32366700     1.42490500    -0.97982875     0.51719559    -0.70318643
