# total energy = -19519.01410085 eV

CRYSTAL
PRIMVEC
        7.60600008     0.00000000     0.00000000
        0.00000000     7.60600008     0.00000000
       -1.89786986    -1.89786986     4.85670466
PRIMCOORD
23 1
Ti      3.84981402     6.65832502     1.20503301     0.42212902     0.24512290     0.20843658
Ti      3.72667300     2.82071800     1.07243199     0.26470674    -0.22706063     1.87484886
Ti      0.04891799     6.65049499     1.19626502    -0.62281655     0.09634030     0.16175664
Ti     -0.02796300     2.81669900     1.16912199    -0.41865545    -0.22243136     0.12737481
Ti      5.53520721     2.91083022     3.70466981    -0.80854231    -0.52975852    -1.02368356
Ti      5.76328822    -0.93407579     3.58548581    -0.25651751    -0.39064893     0.40615192
Ti      1.86478925     2.89839921     3.75670280     1.48888808     0.15096006    -1.93636381
Ti      1.96621025    -0.94637879     3.59790480    -0.03088539    -0.23365217     0.33730392
O       3.96080901     4.70157900     0.73082098    -0.97460015     0.53967707     1.41474181
O       3.99959600     0.94325802     0.85561198    -0.60038238     0.28573554    -0.68268676
O       0.07208802     4.77627898     0.74400898     0.23235968    -0.25659825     0.91740903
O      -0.11875902     0.90238998     0.86036601     0.48249803     0.03053520    -0.42068534
O       5.67698020     4.72913421     3.97531783     0.71664179     0.84629152     0.83135135
O       5.65734524     0.90520124     4.13658380     0.37116330     0.12980605    -1.01538558
O       1.90491221     4.78008324     4.05595883    -0.60517080     0.14660461     0.13108132
O       1.78350821     0.99088620     3.98343684    -0.22863980    -1.19738221     0.57316904
O       3.73919624     2.85041421     3.36537580    -0.23273737    -0.13228845    -0.93820875
O       3.87724525    -1.06646779     3.20232084    -1.09028210     0.52180301     0.04705146
O       0.04365924    -0.99449275     3.24108783    -0.32328086     0.06674998    -0.21358573
O       5.69119501     6.53223901     1.61954502     1.16376503     0.30233665     0.13067148
O       5.70966002     2.85289600     1.74874999     0.73949145     0.10706900    -0.17079356
O       1.92611200     6.72354400     1.67998198     0.33183287    -0.16930206    -0.65604961
O       1.85058899     2.85205699     1.67162098    -0.02096530    -0.10990904    -0.10390552
