# total energy = -4912.95901605 eV

CRYSTAL
PRIMVEC
        5.05818702     0.00000000     0.00000000
       -0.00000661     2.16779458     0.00000000
       -2.52912252    -1.08397571     5.48926150
PRIMCOORD
6 1
Ti     -0.00021613     1.62591325     1.37231533    -0.04564584    -0.03339299    78.35249914
Ti      2.52927377    -0.54209433     4.11694608     0.04564584     0.03339299   -78.35249914
O       0.00005374     0.54193536     0.89415584     0.04522341     0.03437540   -70.09267291
O       2.52900375     0.54188351     4.59510561    -0.04522341    -0.03437540    70.09267291
O      -0.00002115    -0.54197460     3.63878659    -0.00072377     0.00016327    -0.07655900
O       2.52907859     1.62579341     1.85047486     0.00072377    -0.00016327     0.07655900
