# total energy = -19933.27450381 eV

CRYSTAL
PRIMVEC
        5.01336898     0.00000000     0.00000000
        2.28540814     4.82151802     0.00000000
        0.00000000     0.00000000     9.22077034
PRIMCOORD
24 1
Ti      3.17143582     2.85722709     3.42084001     4.35261033    -4.44597458     1.28099529
Ti      4.12734113     1.96429087     5.79993038    -4.35261033     4.44597458    -1.28099529
Ti      5.25478497     1.96429250     1.18950836    -9.12079413     2.06542938     2.21547362
Ti      2.04399208     2.85722564     8.03126218     9.12079413    -2.06542938    -2.21547362
Ti      2.02873187     0.44646815     1.18954531     4.35279133    -4.44596558    -1.28122232
Ti      5.27004511     4.37504995     8.03122523    -4.35279133     4.44596558     1.28122232
Ti      0.90128800     0.44646638     5.79989343     9.12096459    -2.06494190     2.21555024
Ti      6.39748903     4.37505172     3.42087701    -9.12096459     2.06494190    -2.21555024
O       2.39149394     1.69773844     4.70528853    -0.94765807     0.44656350    -1.34339367
O       4.90728301     3.12377952     4.51548191     0.94765807    -0.44656350     1.34339367
O       1.72469112     1.69775791     0.09493301     1.96029565    -0.25956093    -1.51768599
O       5.57408590     3.12376013     9.12583718    -1.96029565     0.25956093     1.51768599
O       3.76457904     0.71302049     0.09490306     0.94771772    -0.44685892    -1.34367624
O       3.53419792     4.10849752     9.12586708    -0.94771772     0.44685892     1.34367624
O       4.43138191     0.71300105     4.70531843    -1.95979352     0.25919481    -1.51771093
O       2.86739500     4.10851697     4.51545196     1.95979352    -0.25919481     1.51771093
O       1.57226204     2.93272061     2.49076011     0.22525597    -2.70832368    -2.35338662
O       5.72651487     1.88879736     6.73001033    -0.22525597     2.70832368     2.35338662
O       3.58411370     1.88875249     2.11965441     2.43777720    -2.33527602    -3.55122932
O       3.71466325     2.93276547     7.10111583    -2.43777720     2.33527602     3.55122932
O       0.42955805     0.52196153     2.11962496     0.22498755    -2.70828589     2.35334934
O       6.86921885     4.29955644     7.10114528    -0.22498755     2.70828589    -2.35334934
O       2.57195927     0.52200638     6.73003968    -2.43739822     2.33531998    -3.55117686
O       4.72681768     4.29951157     2.49073066     2.43739822    -2.33531998     3.55117686
