# total energy = -19941.73722119 eV

CRYSTAL
PRIMVEC
        5.90035786     0.00000000     0.00000000
        0.00003234     6.27976505     0.00000000
        0.00000000     0.00000000    10.56034315
PRIMCOORD
24 1
Ti      2.13861510     3.72138296     3.91781206     0.03829660    -0.75894211     0.58891988
Ti      3.76177510     2.55838215     6.64253139    -0.03829660     0.75894211    -0.58891988
Ti      5.08869073     2.55838431     1.36231746     0.03906433     0.75900099    -0.58890343
Ti      0.81169947     3.72138104     9.19802611    -0.03906433    -0.75900099     0.58890343
Ti      2.13859905     0.58150056     1.36235981     0.03829660    -0.75894211    -0.58891988
Ti      3.76179115     5.69826474     9.19798376    -0.03829660     0.75894211     0.58891988
Ti      0.81168342     0.58149822     6.64248904    -0.03906433    -0.75900099    -0.58890343
Ti      5.08870678     5.69826708     3.91785441     0.03906433     0.75900099     0.58890343
O       1.86751190     2.21121209     5.38886239     1.25185208     1.14561406     0.04073323
O       4.03287829     4.06855309     5.17148106    -1.25185208    -1.14561406    -0.04073323
O       1.08272430     2.21123738     0.10872466    -1.25218350     1.14620490     0.04024652
O       4.81766596     4.06852779    10.45161849     1.25218350    -1.14620490    -0.04024652
O       4.03286224     0.92867050     0.10869039    -1.25185208    -1.14561406     0.04073323
O       1.86752795     5.35109461    10.45165276     1.25185208     1.14561406    -0.04073323
O       4.81764991     0.92864521     5.38889665     1.25218350    -1.14620490     0.04024652
O       1.08274023     5.35111997     5.17144680    -1.25218350     1.14620490    -0.04024652
O       0.21439330     3.81970910     2.85261221     0.44097778    -0.25682142     0.29892762
O       5.68599690     2.46005601     7.70773124    -0.44097778     0.25682142    -0.29892762
O       3.16457695     2.45999749     2.42759309     0.44042088     0.25687773    -0.29907623
O       2.73581324     3.81976763     8.13275018    -0.44042088    -0.25687773     0.29907623
O       0.21437725     0.67982651     2.42755937     0.44097778    -0.25682142    -0.29892762
O       5.68601295     5.59993860     8.13278390    -0.44097778     0.25682142     0.29892762
O       2.73579719     0.67988504     7.70776491    -0.44042088    -0.25687773    -0.29907623
O       3.16459300     5.59988007     2.85257849     0.44042088     0.25687773     0.29907623
