# total energy = -19071.27969735 eV

CRYSTAL
PRIMVEC
        7.60600008     0.00000000     0.00000000
        0.00000000     7.60600008     0.00000000
       -1.89786986    -1.89786986     4.85670466
PRIMCOORD
22 1
Ti      4.29484802     6.46035298     1.09568102     0.48354344     2.54683418    -0.18372133
Ti      3.41580401     2.64687502     1.19134500    -0.44153365     0.20980132    -0.27102626
Ti      0.23460899     6.64257099     0.92412901    -0.69986688     1.10092801     0.48950737
Ti     -0.39734401     2.91757098     1.10652699     0.73088828    -0.53409520     0.59416236
Ti      5.45772423     2.79615825     3.53025484    -1.20872541     0.97442172     0.33740651
Ti     -1.31742180    -0.54555476     3.88282680     1.19934782    -2.09255453     0.55762646
Ti      1.72071222     2.79962124     3.98144083     0.58329996    -0.58181489    -0.35704589
Ti      1.95871022    -0.92571776     3.78369682     0.04316704    -0.08102757    -0.96399409
O       3.39637400     4.79610101     0.99560000     0.32393958    -0.27285791     0.60237781
O       3.64364302     0.63767600     0.82381102     0.06701094     1.25186828     0.52924867
O      -0.29914300     4.87216902     1.13823201     0.17051871    -0.84994326    -2.30446828
O      -0.28940799     0.97966299     0.86124502     1.66802951     0.16461880    -1.89154099
O       6.05268822     4.74505720     3.80414481    -0.68398517     0.19027765     1.83022324
O       5.16624324     0.80347421     3.85309482    -0.27493073     2.54017270     0.66609929
O       2.37815521     4.62627321     4.02637984    -0.76538710     1.71835990     1.14776916
O       2.45950124     0.99228820     4.41439482    -1.69460752    -1.70103194    -1.70266151
O       3.56757723     2.87279825     3.31561980     1.11415634    -0.71351764    -1.41623819
O       0.21899323     3.00576425     2.93609483    -0.32583448    -1.25671327     0.11217264
O       6.07743302    -0.58857703     1.91425600    -1.84199298    -2.14203415     0.41988521
O       5.37887201     2.59920800     1.71610298     1.46774152     0.64805065     0.05760045
O       1.84617300     6.87612400     1.80818501    -0.27046421    -0.83613309     1.63535180
O       1.63948198     2.66071501     0.42611998     0.35568526    -0.28360924     0.11126582
