# total energy = -19073.08255289 eV

CRYSTAL
PRIMVEC
        5.17600016     0.00000000     0.00000000
        0.00000000     5.50899976     0.00000000
        0.00000000     0.00000000     9.26300011
PRIMCOORD
22 1
Ti      2.01785700     3.40174599     3.29563601    -0.10268604    -0.63389312     1.86522753
Ti      3.53985501     2.13958898     5.89895799    -0.68755618     0.52022872    -0.39562813
Ti      4.51365201     2.32283502     1.27461898    -1.58546338    -0.41263753    -1.60630655
Ti      0.57882498     3.17754598     8.05071599     0.35491855     0.56015565    -0.77719104
Ti      1.87400101     0.40546699     1.31637201     0.25454753     0.96157031    -2.08294812
Ti      3.24852500     5.17686700     8.00741998    -0.28244221     1.47201804     0.48686068
Ti      0.66764399     0.14160000     6.12706598     0.08918132    -0.35462365    -0.32882648
Ti      4.60614998     5.03105899     3.18188999     1.51821410    -0.47673053     2.79010254
O       3.74727598     3.28794002     4.32673200    -1.14254288     0.60066366     0.92779835
O       0.72759501     1.87293397     0.19774301     1.27212575     0.67300707    -1.19855541
O       4.20324701     3.88239801     8.92996801     0.40050989    -2.01152439     0.40520935
O       3.53820901     0.76114300     0.28353100    -1.34840784     0.80740305    -0.06184097
O       1.66792499     4.73216401     9.06562699    -0.57121552    -0.65374796     0.13253090
O       4.45281499     0.86963201     4.95547702    -0.54605392    -1.10406913    -2.03462704
O       1.08828000     4.89995998     4.31189599    -0.53644339    -0.89193402    -0.53797448
O       0.40277199     3.58440502     2.14308902    -0.28126079     1.20098664     1.34939360
O       4.59789899     1.26300602     7.21620198     0.33894840     0.27696396     1.11159398
O       2.65780401     1.90123898     2.34968198     0.30194224     0.25124444    -0.47235219
O       1.63270602     4.06784003     6.61459000     0.69182627    -1.08575901     1.22631510
O       0.16428699     0.89172002     2.15637502     0.02449337    -1.31957059     1.83574160
O       2.00113298     1.20794301     6.95191901     0.95077065     0.47212439    -0.98753975
O       2.87077198     4.70529599     2.44802301     0.88659435     1.14812397    -1.64698373
