# total energy = -4867.86608108 eV

CRYSTAL
PRIMVEC
        5.07339991     0.00000000     0.00000000
       -0.00000658     1.92439280     0.00000000
       -2.53673037    -0.96228774     5.59920990
PRIMCOORD
6 1
Ti     -0.00021678     1.44334906     1.39980223    -0.06670267    -0.05776885   118.47650744
Ti      2.53687978    -0.48124425     4.19940723     0.06670267     0.05776885  -118.47650744
O       0.00005386     0.48108289     0.91206546     0.06553024     0.05851473  -110.87495559
O       2.53660900     0.48102188     4.68714404    -0.06553024    -0.05851473   110.87495559
O      -0.00002199    -0.48113589     3.71167041    -0.00053530     0.00011390     0.31731179
O       2.53668475     1.44324061     1.88753910     0.00053530    -0.00011390    -0.31731179
