# total energy = -19874.58245948 eV

CRYSTAL
PRIMVEC
        9.70453595     0.00000000     0.00000000
        0.00003017     3.44285365     0.00000000
        0.00000000     0.00000000    15.43909817
PRIMCOORD
24 1
Ti      3.51744517     2.04023177     5.72779544     0.26587222     0.04015936     1.95311790
Ti      6.18712055     1.40262155     9.71130320    -0.26587222    -0.04015936    -1.95311790
Ti      8.36954761     1.40262266     1.99169220     0.26654379    -0.03939446    -1.95467419
Ti      1.33501818     2.04023079    13.44740657    -0.26654379     0.03939446     1.95467419
Ti      3.51743048     0.31880501     1.99175411     0.26628385     0.03951221    -1.95348145
Ti      6.18713530     3.12404844    13.44734466    -0.26628385    -0.03951221     1.95348145
Ti      1.33500342     0.31880383     9.71124128    -0.26578943     0.04008248    -1.95396739
Ti      8.36956236     3.12404961     5.72785735     0.26578943    -0.04008248     1.95396739
O       3.07155737     1.21228719     7.87845380     0.49166838     0.53218153    -2.08424858
O       6.63300841     2.23056619     7.56064483    -0.49166838    -0.53218153     2.08424858
O       1.78078829     1.21230117     0.15895420    -0.49012675     0.53222087    -2.08326693
O       7.92377756     2.23055222    15.28014398     0.49012675    -0.53222087     2.08326693
O       6.63299366     0.50913930     0.15890406    -0.49251968    -0.53227486    -2.08491090
O       3.07157213     2.93371402    15.28019411     0.49251968     0.53227486     2.08491090
O       7.92376281     0.50912539     7.87850388     0.49152749    -0.53237925    -2.08399867
O       1.78080285     2.93372799     7.56059476    -0.49152749     0.53237925     2.08399867
O       0.35260635     2.09413875     4.17048566    -1.54977131     0.53269035     0.45321495
O       9.35195944     1.34871457    11.26861291     1.54977131    -0.53269035    -0.45321495
O       5.20488716     1.34868266     3.54911270    -1.55192281    -0.53257851    -0.45385850
O       4.49967863     2.09417073    11.88998567     1.55192281     0.53257851     0.45385850
O       0.35259159     0.37271192     3.54906342    -1.54961113     0.53263738    -0.45256395
O       9.35197419     3.07014146    11.89003495     1.54961113    -0.53263738     0.45256395
O       4.49966394     0.37274384    11.26866212     1.55160811     0.53279037    -0.45316558
O       5.20490184     3.07010948     4.17043638    -1.55160811    -0.53279037     0.45316558
