# total energy = -4979.45230858 eV

CRYSTAL
PRIMVEC
        5.08671073     0.00000000     0.00000000
       -0.00000770     3.05202644     0.00000000
       -2.54338402    -1.52606890     5.53964739
PRIMCOORD
6 1
Ti     -0.00021804     2.28912831     1.38491148    -0.00656403    -0.00767243    12.37796292
Ti      2.54353688    -0.76317088     4.15473523     0.00656403     0.00767243   -12.37796292
O       0.00005387     0.76299681     0.90236318     0.00460228     0.00830827    -6.39526307
O       2.54326486     0.76296057     4.63728359    -0.00460228    -0.00830827     6.39526307
O      -0.00002095    -0.76300696     3.67218687    -0.00235410     0.00004731    -2.26407546
O       2.54333963     2.28896428     1.86745984     0.00235410    -0.00004731     2.26407546
