# total energy = -19074.33465956 eV

CRYSTAL
PRIMVEC
        5.93400000     0.00000000     0.00000000
        0.00000000     9.29699974     0.00000000
        0.00000000     0.00000000     4.64899994
PRIMCOORD
22 1
Ti      4.44735198     6.82822901     2.45511002    -0.45782340     1.13011467    -0.41230406
Ti      4.42853899     2.36952999     2.12029598     0.40161855     0.59529571     0.11690913
Ti      1.47591499     7.09144501     2.49232499     1.24685308     1.29199293     0.22058916
Ti      1.58102800     2.29265700     2.20333801    -0.30490595     1.86054093     0.32534263
Ti      3.06500701     4.60608399     4.50300301    -1.28123209    -0.70312087    -0.45691348
Ti      2.95374099     0.10791999     0.06070901     0.92827451    -0.93417906    -0.25829929
Ti      5.76682100     4.61480001     4.48679701     1.85815571    -1.42025734     0.29068260
Ti      5.93393603     9.13974001     0.19502902    -1.14531041    -0.73105232    -0.35722509
O       4.39110398     5.43587101     0.93609302     0.00750634     0.76019115     1.31105895
O       4.51254699     0.87200600     1.08478801     0.09025321    -0.86616230    -1.29765373
O       1.36995200     0.81219902     1.12279702     0.66931111     0.02164407    -0.66993203
O       4.44059301     8.40500301     3.79862301    -0.01419918     0.91656339     0.31854566
O       4.42147601     3.97857798     3.37633400    -0.28223704    -0.72566328    -0.16332810
O       1.52728698     8.49566103     3.75700099    -0.45670240     0.77567871     0.25074282
O       1.46102902     3.84356799     3.58563699     0.13199457     0.20601743     0.23533830
O       2.94948598     6.25030300     3.53935901    -0.72605949    -0.53390622    -0.79017331
O       3.00931402     1.53180801     3.14050002     0.03633973    -0.78283358     1.81826786
O       0.13097502     6.26364499     3.58967499    -0.33932866    -0.62025881    -0.56313814
O       2.98250997     7.89400099     1.54337302    -0.07988138    -0.70882409    -0.51442471
O       3.00615901     2.99967299     1.10491199    -0.75871303     1.54358575    -0.30003422
O       5.88892199     7.93712597     1.52561298     0.22218556    -1.66265641     0.49518771
O       0.00373800     3.09750501     1.16324399     0.25390090     0.58728955     0.40076134
