# total energy = -19077.21618627 eV

CRYSTAL
PRIMVEC
        5.17575250     0.00001323     0.00000000
        0.00001429     5.50856584     0.00000000
        0.00000000     0.00000000     9.26345890
PRIMCOORD
22 1
Ti      1.90948968     3.41755211     3.30930902    -0.02629802     0.00252971     0.00066463
Ti      3.42069665     2.27012277     5.92592095    -0.01268171    -0.00370162    -0.00260144
Ti      4.46379057     2.24874180     1.13399707     0.01507901     0.00780356    -0.01498697
Ti      0.74065837     3.27962148     8.09010946     0.02312091    -0.01519625    -0.00933774
Ti      1.80640776     0.62553141     1.24143557     0.02594475     0.00421404    -0.01514483
Ti      3.18926291     4.98526303     8.13910909     0.03141761    -0.00019823    -0.01250379
Ti      0.80394798     0.56744792     5.77713875     0.01171986     0.03205550    -0.01012861
Ti      4.46282243     4.93833907     3.50256197     0.01111205     0.01884336     0.00596830
O       3.46990250     3.49503452     4.52621546    -0.01503222     0.01366799     0.03130165
O       0.95130757     1.96063906     0.14232974    -0.00207462    -0.01992529     0.03395940
O       4.14240514     3.61446407     9.13979043    -0.02714212     0.00344734    -0.02724188
O       3.56235618     0.82611203     0.07607514    -0.02368912     0.00457528     0.00954445
O       1.54707248     4.75010517     9.09952755    -0.02845749    -0.00439787     0.03028015
O       4.29572000     0.82984683     4.71846421     0.02489266    -0.00979076    -0.04090755
O       0.94073913     4.59150344     4.59154318    -0.03021433     0.02491297     0.01107606
O       0.16729721     3.30990513     2.50573800     0.02013200    -0.03131142    -0.01434110
O       5.09738761     2.01454610     6.81087811     0.02924862    -0.01020394     0.02913524
O       2.73495456     2.08640673     2.17089020     0.00559986     0.00273617     0.01920281
O       2.34242114     3.38569626     7.05896395    -0.01729685    -0.00784110     0.01703228
O       0.19551818     0.52586669     2.18487120    -0.00731813     0.01684973    -0.00819771
O       2.46499608     0.65635873     6.68355931    -0.00846665    -0.02494022    -0.01002088
O       2.77416592     4.87194222     2.47198783     0.00040341    -0.00412945    -0.02275299
