# total energy = -4978.89949778 eV

CRYSTAL
PRIMVEC
        4.60300966     0.00000000     0.00000000
        0.00000000     2.73567216     0.00000000
        0.00000000    -0.00010921     6.23692708
PRIMCOORD
6 1
Ti      2.30150483     1.36778131     3.11846326     0.00000000     0.00000000     0.00000000
Ti      0.00000000     0.00000000     0.00000000     0.00000000     0.00000000     0.00000000
O       2.30150483     0.53312087     1.21548513     0.00000000     0.03572446     2.70296525
O       2.30150483     2.20244175     5.02144138     0.00000000    -0.03572446    -2.70296525
O       0.00000000     0.83461724     4.33394976     0.00000000    -0.03597386     2.70649691
O       0.00000000     1.90094537     1.90297675     0.00000000     0.03597386    -2.70649691
