# total energy = -19958.44306612 eV

CRYSTAL
PRIMVEC
        7.60600008     0.00000000     0.00000000
        0.00000000     7.60600008     0.00000000
       -1.89786986    -1.89786986     4.85670466
PRIMCOORD
24 1
Ti      3.69823200     6.68623700     1.31257400    -2.20401370     1.54487542     0.93529697
Ti      3.74283899     3.05440098     1.22307701     0.13509892    -1.13678129     0.86486723
Ti     -0.10010398     6.55425501     1.14647802     3.30862584    -0.65160211     0.06297817
Ti      0.11097403     2.65774802     1.07996298    -1.26631660     1.31272606    -0.51663972
Ti      5.79315223     2.93621120     3.58481682     0.34296935    -3.93176635    -1.51997762
Ti      5.80021722    -1.12583878     3.52263384    -1.39167104     2.85976917     0.84172189
Ti      1.91374021     2.95093423     3.71560679    -0.76990479     0.61801810    -0.39399317
Ti      1.75656123    -0.95399080     3.81152683     2.34502153     0.01336820    -0.39522061
O       3.62146700     4.89634300     0.94385002     0.70770129    -1.78334995    -0.80883619
O       3.72159702     1.03137699     0.86264703    -0.11416139     0.50004375     0.99444291
O       0.24336798     4.62539202     0.61558697    -1.19413079     1.15903034     0.37149883
O       0.42705901     0.83725102     0.59495700    -1.73207725    -0.77563192     0.93317864
O       5.98560823     4.61537020     4.04206682    -0.99990342     2.79004520     0.26182196
O       5.66636924     0.84167520     3.78028082    -0.15582074    -0.59373042     0.91846858
O       1.58802325     4.85165721     4.25666783     0.25022088    -1.15657673    -0.31967617
O       2.09076423     1.15390020     4.22146780    -0.62853468    -1.08260941    -0.67711852
O       3.69803721     3.07509123     3.23631979     2.03795919     0.24594462    -0.31851095
O       3.52367621    -1.23262178     3.31587884     2.98693650     0.67921937    -0.09671697
O       0.14027325     2.96602923     3.08369883    -1.59723801    -1.04088039     0.90437405
O      -0.02197377    -0.91507780     3.29690582    -1.52646683     0.13944717    -2.01015887
O       5.60347198     6.60330900     1.50531502     1.79602832    -0.30093668     0.79941900
O       5.91016200     2.96933801     1.58193501    -2.10417515    -0.39480075     0.18263607
O       1.79862098     6.41905302     1.77114398    -1.58223947     1.17625108    -0.54957479
O       1.80808701     2.93384498     1.65013601     3.35609203    -0.19007247    -0.46428073
