# total energy = -19960.78597929 eV

CRYSTAL
PRIMVEC
        5.93400000     0.00000000     0.00000000
        0.00000000     9.29699974     0.00000000
        0.00000000     0.00000000     4.64899994
PRIMCOORD
24 1
Ti      4.43718400     7.04658797     2.30824899     0.06448740    -1.79276122    -0.12528810
Ti      4.47565698     2.21446100     2.21395199    -0.57551569     1.11503155     1.00924295
Ti      1.42771101     7.00743299     2.41336899    -0.08380540    -2.23253444    -0.64424567
Ti      1.53015401     2.37348401     2.31830299     0.51758923     0.43940272     0.45504223
Ti      2.98393399     4.65973002     4.57309402    -0.30065232     0.95927766     0.54323470
Ti      2.94911497     9.24287100     0.05386998    -0.24434617     0.00546822    -0.20786708
Ti      5.90312399     4.57973800     0.05198701     0.32260646     1.24649467    -0.21485791
Ti      0.01279302     0.01250202     4.61603802     0.27126614    -0.12547862    -0.11936659
O       4.35389801     5.68503798     0.91589199     0.76842486    -0.80021913    -0.66741723
O       4.45182501     0.85403101     0.88589299     0.10686409     0.24365377     0.07880640
O       1.51355002     5.62774301     0.86623199    -0.43089879    -0.60219655    -0.07502816
O       1.46281600     0.93123401     0.80410901     0.35741870     0.29043064     0.41423316
O       4.45714001     8.39352400     3.76846202    -0.06287044     0.13564425     0.10731943
O       4.49059100     3.70318700     3.79107699    -0.21997236     0.08331097     0.26059220
O       1.57108799     8.35624198     3.74831899    -0.67555658     0.52726712     0.77333001
O       1.42715400     3.68769502     3.80742698     0.28210411     0.01178414    -0.38235481
O       3.04704801     6.02024298     3.21426601    -0.47843542     0.26699271     0.08676936
O       2.96309399     1.48857899     3.27463899     0.12000320    -0.77671924    -0.40931258
O       5.84009501     5.98198199     3.18713499     0.52077842     1.04148769    -0.20522193
O       5.92281902     1.41532901     3.10614700     0.35404798    -1.00218373     1.15760595
O       2.85704798     7.81986501     1.48942800     1.07991772     1.76032854    -1.09396212
O       3.01139998     3.30536901     1.52053299    -0.37985466    -0.46276532    -0.53713527
O       0.12666598     8.02436502     1.50980403    -1.10426273    -0.26892155    -0.46185309
O       0.01153702     3.23685600     1.41722103    -0.20933775    -0.06279485     0.25773416
