# total energy = -19959.87649144 eV

CRYSTAL
PRIMVEC
        7.60600008     0.00000000     0.00000000
        0.00000000     7.60600008     0.00000000
       -1.89786986    -1.89786986     4.85670466
PRIMCOORD
24 1
Ti      3.69248598     6.76045998     1.33896598     1.59971758     0.82415920    -0.20471825
Ti      3.82303602     3.03126001     1.37410298    -0.91730027    -0.67122607    -2.82702308
Ti      0.06749301     6.62453901     1.16453698    -1.15571207    -0.19785983    -0.08095044
Ti      0.00311400     2.83924000     1.16466399     0.95369605    -0.50620721    -0.87344083
Ti      5.73702922     2.71672324     3.52897381    -0.37445123     0.06667619     0.78742300
Ti      5.83008324    -1.05048077     3.59750782    -1.41963488    -0.29841931    -0.50907810
Ti      1.73500922     3.02971624     3.67258484     0.70254443    -2.72088507    -0.24978148
Ti      1.84955222    -0.92110979     3.68953481     0.35216670     1.77336404     1.06885786
O       3.73155201     4.87914702     0.91119200     0.45623548    -0.27112164    -0.45432901
O       3.64956198     1.07249401     0.80032799     0.26491654    -1.54549377     0.08864061
O       0.12514597     4.69851199     0.79139998    -0.70083876    -0.27329191    -1.30589849
O       0.25457098     0.90176799     0.75242898    -0.68963672    -1.17856224    -0.26583725
O       5.92913824     4.58127621     3.78555079    -1.16537685     0.27555423     1.62298633
O       5.82143125     0.75372324     3.82213181    -0.21964171     2.51108118     1.67205123
O       1.81235424     4.85798125     4.07508981     0.23817834    -0.95193716     0.15302775
O       1.67642421     1.06561021     4.26544883     0.55399837    -0.11845539    -1.23598734
O       3.82424921     2.59340324     3.15470081    -0.34537487     0.81732597     1.68716366
O       3.79482822    -0.88753376     3.18955280    -0.79364919    -0.10016482     1.22793696
O      -0.01461979     2.68353324     3.12138683    -0.05799434     0.36019343     0.50179133
O      -0.03432979    -1.12250877     3.11522583     2.32958591     0.52137903    -0.07116559
O       5.71428000     6.71594702     1.65604602     0.46608873    -0.23469733    -1.35914940
O       5.75069999     2.80480199     1.51284801    -0.64200136     0.11030551     0.39005912
O       1.89887303     6.43460501     1.70479002    -0.83492364     0.94845794    -0.37941706
O       1.80405600     2.83019498     1.69924001     1.39940698     0.85982478     0.61683847
