# total energy = -19927.56314660 eV

CRYSTAL
PRIMVEC
        6.77505978     0.00000000     0.00000000
        0.00003150     5.89967401     0.00000000
        0.00000000     0.00000000    11.13486461
PRIMCOORD
24 1
Ti      2.45565196     3.49614123     4.13095549     0.36331552    -0.76815746     0.82721110
Ti      4.31943938     2.40353252     7.00390956    -0.36331552     0.76815746    -0.82721110
Ti      5.84306447     2.40353443     1.43643254     0.36381997     0.76841329    -0.82745124
Ti      0.93202688     3.49613952     9.69843263    -0.36381997    -0.76841329     0.82745124
Ti      2.45563646     0.54630436     1.43647719     0.36331552    -0.76815746    -0.82721110
Ti      4.31945488     5.35336959     9.69838799    -0.36331552     0.76815746     0.82721110
Ti      0.93201138     0.54630220     7.00386491    -0.36381997    -0.76841329    -0.82745124
Ti      5.84307997     5.35337169     4.13100014     0.36381997     0.76841329     0.82745124
O       2.14436031     2.07737542     5.68203635     0.97076818     1.33770279    -0.76641734
O       4.63073104     3.82229833     5.45282870    -0.97076818    -1.33770279     0.76641734
O       1.24323136     2.07739926     0.11463969    -0.97061109     1.33792056    -0.76734628
O       5.53186005     3.82227456    11.02022505     0.97061109    -1.33792056     0.76734628
O       4.63071554     0.87246127     0.11460354    -0.97076818    -1.33770279    -0.76641734
O       2.14437581     5.02721249    11.02026119     0.97076818     1.33770279     0.76641734
O       5.53184448     0.87243749     5.68207250     0.97061109    -1.33792056    -0.76734628
O       1.24324673     5.02723633     5.45279255    -0.97061109     1.33792056     0.76734628
O       0.24617263     3.58851619     3.00780483    -0.77592220     0.05944341     0.04550854
O       6.52891871     2.31115756     8.12706022     0.77592220    -0.05944341    -0.04550854
O       3.63370930     2.31110273     2.55966311    -0.77502154    -0.05915956    -0.04568004
O       3.14138204     3.58857102     8.57520175     0.77502154     0.05915956     0.04568004
O       0.24615707     0.63867913     2.55962754    -0.77592220     0.05944341    -0.04550854
O       6.52893427     5.26099463     8.57523732     0.77592220    -0.05944341     0.04550854
O       3.14136648     0.63873396     8.12709573     0.77502154     0.05915956    -0.04568004
O       3.63372486     5.26093980     3.00776925    -0.77502154    -0.05915956     0.04568004
