# total energy = -4988.13595053 eV

CRYSTAL
PRIMVEC
        3.06000369     0.00000000     0.00000000
        1.40671856     4.58355936     0.00000000
       -0.00000937    -0.00006284     4.85066132
PRIMCOORD
6 1
Ti      2.23335650     2.29174831     2.42533066     0.00000000     0.00000000     0.00000000
Ti      0.00000000     0.00000000     0.00000000     0.00000000     0.00000000     0.00000000
O       1.80414876     0.89325606     0.94532243    -1.14899609     0.62267771     0.48477294
O       2.66256430     3.69024055     3.90533883     1.14899609    -0.62267771    -0.48477294
O       0.42920390     1.39846681     3.37065417     1.14918712    -0.62306260     0.48499920
O       0.97750549     3.18502957     1.48000715    -1.14918712     0.62306260    -0.48499920
