# total energy = -4988.19146205 eV

CRYSTAL
PRIMVEC
        4.14543155     0.00000000     0.00000000
       -0.00000923     4.14543155     0.00000000
       -2.07274829    -2.07275290     5.29049262
PRIMCOORD
6 1
Ti     -0.00018255     3.10923067     1.32262301    -0.00141282     0.00141282     0.00000000
Ti      2.07285647    -1.03655214     3.96786926     0.00141282    -0.00141282     0.00000000
O       0.00004141     1.03635084     0.86177796    -0.00023757    -0.00176301    -0.95594397
O       2.07263240     1.03632757     4.42871437     0.00023757     0.00176301     0.95594397
O      -0.00002341    -1.03633285     3.50702421    -0.00176301    -0.00023757    -0.95594397
O       2.07269716     3.10901121     1.78346812     0.00176301     0.00023757     0.95594397
