# total energy = -19073.09504115 eV

CRYSTAL
PRIMVEC
        5.93400000     0.00000000     0.00000000
        0.00000000     9.29699974     0.00000000
        0.00000000     0.00000000     4.64899994
PRIMCOORD
22 1
Ti      4.43291200     6.71299897     2.28720102    -1.29969339     0.02705264     0.46136406
Ti      4.39434900     2.45698601     2.08338602     1.28052915    -0.42347422    -0.08052724
Ti      1.45108498     7.26845501     2.70872700     1.16304589    -1.32610043    -0.69498487
Ti      1.61101002     2.43347101     2.12319999    -1.67583718     0.73184190    -0.28684137
Ti      3.04982000     4.54842700     4.45348700    -0.68379028     0.55205282    -0.63990925
Ti      3.02518902     0.22073899     0.02557598     0.62237843    -0.32419952     0.14746645
Ti      5.79462302     4.50023700     4.36715099     1.49375313    -0.95207908    -0.10194325
Ti      5.92412598     9.14149201     0.36155200    -1.33371758     0.94032168     0.00500234
O       4.55575801     5.15444301     0.88989500    -1.00344100     2.34552778     1.94571466
O       4.35228301     0.68237401     1.31006501     0.98725796     0.48352775    -0.81678810
O       1.52118001     0.65613698     1.34005502    -0.34892711     0.75676979    -0.89937608
O       4.47063001     8.44445201     3.93889101    -0.30250274     1.11462660    -0.19347584
O       4.42350000     4.09334600     3.20160301    -0.34210751    -1.31952586    -0.31859580
O       1.50128300     8.38371702     4.03702498     0.21234492     1.94289750     0.37228842
O       1.45640300     3.90615701     3.44795201     0.45993890    -0.32458004    -0.27631090
O       2.93354700     6.21212101     3.61332799    -0.41757019     0.03269005    -0.83605030
O       2.96869199     1.81400099     3.14203802     0.97933459    -2.17097784     3.11282007
O       5.92190201     6.25158298     3.52552600     0.11914805    -0.53747080    -0.69506766
O       2.89750998     7.74586502     1.61698300     0.74253898    -0.68760683    -0.39039182
O       3.03213003     2.94592800     0.93585399    -0.80875700     0.93135033    -0.74025404
O       5.86961400     7.84331401     1.55450098     0.08449111    -1.98710764     1.03633288
O       0.03258599     2.98818699     1.03234798     0.07158237     0.19446340    -0.11047160
