# total energy = -4986.17620061 eV

CRYSTAL
PRIMVEC
        4.14995601     0.00000000     0.00000000
        1.59612955     3.83073170     0.00000000
       -2.87308131    -1.91539153     5.40981209
PRIMCOORD
6 1
Ti      1.19698498     2.87319625     1.35245274    -0.00030108     0.00030108     0.00000000
Ti      1.67601940    -0.95785605     4.05735861     0.00030108    -0.00030108     0.00000000
O       0.39907553     0.95767791     0.88121405    -0.00065177    -0.00096159    -1.74028704
O       2.47392866     0.95766221     4.52859736     0.00065177     0.00096159     1.74028704
O      -0.39903969    -0.95765401     3.58611998    -0.00096159    -0.00065177    -1.74028704
O       3.27204381     2.87299409     1.82369148     0.00096159     0.00065177     1.74028704
