# total energy = -19517.94296533 eV

CRYSTAL
PRIMVEC
        5.93400000     0.00000000     0.00000000
        0.00000000     9.29699974     0.00000000
        0.00000000     0.00000000     4.64899994
PRIMCOORD
23 1
Ti      4.50883200     7.12332100     2.17641999     0.30431485     0.14138322     0.18824493
Ti      4.50988602     2.31180501     2.27164099     0.07595427    -0.58142383     0.50363019
Ti      1.33942499     7.04506701     2.22272199    -0.34438268    -0.41414111     0.05798251
Ti      1.52273400     2.31778403     2.45717201    -0.36733776    -0.97619810    -0.38169403
Ti      2.95539001     4.49666299     0.18928300     0.72420290     0.37493254     0.53529745
Ti      2.97686302     0.02371698     4.62963603     0.07163816     0.65154041     0.40357747
Ti      5.92085498     4.57157898     0.09815402    -0.55496434     0.49506250    -0.20678876
Ti      0.05735302     0.00091399     4.51891997    -0.26629594     0.91572316     0.41029679
O       4.48747700     5.57536002     1.04600800    -0.58296906    -0.60609511    -1.24444884
O       4.44483500     0.99989999     0.92675600    -0.60132109    -1.30287024    -0.93433872
O       1.46656702     5.65218602     0.92862098     0.49472491    -1.51490817    -0.95432571
O       1.47291698     0.93480500     0.88839002     0.22972738    -0.48792948    -0.39282768
O       4.38364100     8.50332801     3.63233699     0.09913586    -0.90816591     0.18823953
O       4.44834101     3.63200901     3.84573402    -0.09091296     1.23090273     0.08031666
O       1.37913799     8.28845897     3.63366798     1.11150065     1.21741446     1.36487730
O       1.53344999     3.66062400     3.89406298    -0.20582434     0.49743434    -0.88888983
O       2.98154698     1.41066002     3.24254201    -0.15157610    -0.24976297     0.18651792
O       5.85182502     6.18218699     3.14271500    -0.20576315    -1.09965120     1.08135497
O       5.90918000     1.35275602     3.15861201     0.62746665     0.20476119     0.49580709
O       2.87520902     7.74997498     1.44164002     1.02041055     0.86945537    -0.59283567
O       3.02436901     3.30156898     1.51440797    -0.94039650    -0.15405850     0.51461626
O       0.01823100     7.92165098     1.30835598    -0.76332225     0.34993061    -0.20226619
O       0.04981399     3.14625901     1.42787601     0.31598998     1.34666463    -0.21234415
