# total energy = -4986.16514666 eV

CRYSTAL
PRIMVEC
        2.83478944     0.00000000     0.00000000
        0.00000000     4.01867223     0.00000000
        0.00000000    -0.00005497     4.24078295
PRIMCOORD
6 1
Ti      1.41739472     2.00930848     2.12039147     0.00000000     0.00000000     0.00000000
Ti      0.00000000     0.00000000     0.00000000     0.00000000     0.00000000     0.00000000
O       1.41739472     0.78316926     0.82646613    -0.00000000     0.61470780     0.47242547
O       1.41739472     3.23544766     3.41431677    -0.00000000    -0.61470780    -0.47242547
O       0.00000000     1.22611696     2.94685846     0.00000000    -0.61354489     0.47117077
O       0.00000000     2.79250001     1.29392444     0.00000000     0.61354489    -0.47117077
