# total energy = -19900.67397929 eV

CRYSTAL
PRIMVEC
        6.76204070     0.00000000     0.00000000
        1.42515529     7.05433697     0.00000000
        0.00000000     0.00000000    12.16413781
PRIMCOORD
24 1
Ti      3.29546011     4.18039356     4.51280852    -0.28531645    -1.58693585     0.59074717
Ti      4.89173554     2.87394358     7.65132977     0.28531645     1.58693585    -0.59074717
Ti      6.41243312     2.87394611     1.56921202     0.29697050    -0.10536462    -0.38215323
Ti      1.77476256     4.18039130    10.59492641    -0.29697050     0.10536462     0.38215323
Ti      2.58288263     0.65322533     1.56926079    -0.28531645    -1.58693585    -0.59074717
Ti      5.60431304     6.40111201    10.59487763     0.28531645     1.58693585     0.59074717
Ti      1.06218496     0.65322261     7.65128099    -0.29697050     0.10536462    -0.38215323
Ti      7.12501071     6.40111474     4.51285730     0.29697050    -0.10536462     0.38215323
O       2.64204986     2.48395200     6.20726660     1.69535186     1.82324706    -0.47298931
O       5.54514580     4.57038514     5.95687169    -1.69535186    -1.82324706     0.47298931
O       1.74265841     2.48398041     0.12523663    -0.92353186     0.43680668     0.68021593
O       6.44453732     4.57035679    12.03890131     0.92353186    -0.43680668    -0.68021593
O       4.83256830     1.04321671     0.12519715    -1.69535186    -1.82324706    -0.47298931
O       3.35462736     6.01112043    12.03894080     1.69535186     1.82324706     0.47298931
O       5.73195982     1.04318836     6.20730609     0.92353186    -0.43680668     0.68021593
O       2.45523577     6.01114885     5.95683220    -0.92353186     0.43680668    -0.68021593
O       1.11254074     4.29084755     3.28583721     0.50557471     1.18964422     1.41644954
O       7.07465492     2.76348959     8.87830108    -0.50557471    -1.18964422    -1.41644954
O       4.18499595     2.76342370     2.79627063     0.52702132     1.43068009     0.67707764
O       4.00219971     4.29091344     9.36786745    -0.52702132    -1.43068009    -0.67707764
O       0.39996324     0.76367912     2.79623176     0.50557471     1.18964422    -1.41644954
O       7.78723242     6.29065809     9.36790632    -0.50557471    -1.18964422     1.41644954
O       3.28962220     0.76374494     8.87833988    -0.52702132    -1.43068009     0.67707764
O       4.89757345     6.29059220     3.28579834     0.52702132     1.43068009    -0.67707764
