# total energy = -4987.93443082 eV

CRYSTAL
PRIMVEC
        3.23483623     0.00000000     0.00000000
        0.25326716     5.06217171     0.00000000
       -0.00000140    -0.00006578     5.07008919
PRIMCOORD
6 1
Ti      1.74405088     2.53105279     2.53504448     0.00000000     0.00000000     0.00000000
Ti      0.00000000     0.00000000     0.00000000     0.00000000     0.00000000     0.00000000
O       1.66677579     0.98652976     0.98808564     0.17163508    -0.65777019    -0.67002125
O       1.82132590     4.07557583     4.08200327    -0.17163508     0.65777019     0.67002125
O       0.07727439     1.54449637     3.52313114    -0.17204723     0.65782470    -0.66979936
O       0.17599125     3.51760945     1.54695776     0.17204723    -0.65782470     0.66979936
