# total energy = -4983.57525387 eV

CRYSTAL
PRIMVEC
        4.79196697     0.00000000     0.00000000
       -0.00000778     3.19464428     0.00000000
       -2.39601172    -1.59737089     5.30869411
PRIMCOORD
6 1
Ti     -0.00020595     2.39609926     1.32717325    -0.00473469    -0.00928297     9.43502830
Ti      2.39615347    -0.79882620     3.98152014     0.00473469     0.00928297    -9.43502830
O       0.00005043     0.79865239     0.86474276     0.00277448     0.00289403    -3.85454170
O       2.39589698     0.79862061     4.44395068    -0.00277448    -0.00289403     3.85454170
O      -0.00002053    -0.79865534     3.51908970    -0.00238573    -0.00024554    -2.00770553
O       2.39596789     2.39592828     1.78960379     0.00238573     0.00024554     2.00770553
