# total energy = -4989.70509324 eV

CRYSTAL
PRIMVEC
        3.04952377     0.00000000     0.00000000
        0.71271346     4.72469302     0.00000000
       -0.00000448    -0.00006202     4.79171771
PRIMCOORD
6 1
Ti      1.88111610     2.36231541     2.39585880     0.00000000     0.00000000     0.00000000
Ti      0.00000000     0.00000000     0.00000000     0.00000000     0.00000000     0.00000000
O       1.66365823     0.92076094     0.93383517    -0.31426863    -0.03407664    -0.09386021
O       2.09857397     3.80386988     3.85788238     0.31426863     0.03407664     0.09386021
O       0.21745592     1.44152934     3.32969500     0.31438356     0.03435329    -0.09418854
O       0.49525262     3.28310158     1.46202255    -0.31438356    -0.03435329     0.09418854
