# total energy = -19912.50701747 eV

CRYSTAL
PRIMVEC
        6.49225711     0.00000000     0.00000000
        2.65761690     6.37819468     0.00000000
        0.00000000     0.00000000    11.86880696
PRIMCOORD
24 1
Ti      3.92803231     3.77971238     4.40324273    -0.15134959    -2.19977497     0.54498177
Ti      5.22184180     2.59848248     7.46556437     0.15134959     2.19977497    -0.54498177
Ti      6.68186895     2.59848465     1.53111337    -0.28389926    -1.13144213     0.21149105
Ti      2.46800522     3.77971047    10.33769379     0.28389926     1.13144213    -0.21149105
Ti      2.59922399     0.59061501     1.53116095    -0.15134959    -2.19977497    -0.54498177
Ti      6.55065017     5.78758004    10.33764621     0.15134959     2.19977497     0.54498177
Ti      1.13919674     0.59061267     7.46551672     0.28389926     1.13144213     0.21149105
Ti      8.01067742     5.78758239     4.40329031    -0.28389926    -1.13144213    -0.21149105
O       2.99063244     2.24587084     6.05656136     1.82790307     2.08758870    -0.81059251
O       6.15924161     4.13232403     5.81224573    -1.82790307    -2.08758870     0.81059251
O       2.12712900     2.24589661     0.12219602    -0.22056602    -0.75523252     1.56791225
O       7.02274521     4.13229836    11.74661068     0.22056602     0.75523252    -1.56791225
O       4.83043326     0.94322654     0.12215749    -1.82790307    -2.08758870    -0.81059251
O       4.31944086     5.43496832    11.74664921     1.82790307     2.08758870     0.81059251
O       5.69393678     0.94320082     6.05659983     0.22056602     0.75523252     1.56791225
O       3.45593722     5.43499413     5.81220720    -0.22056602    -0.75523252    -1.56791225
O       1.85239200     3.87957975     3.20606088     0.62570415     2.68385294     2.55504706
O       7.29748205     2.49861512     8.66274621    -0.62570415    -2.68385294    -2.55504706
O       4.52309907     2.49855576     2.72838042     0.65879761     2.07252949     1.53011677
O       4.62677499     3.87963911     9.14042648    -0.65879761    -2.07252949    -1.53011677
O       0.52358364     0.69048220     2.72834247     0.62570415     2.68385294    -2.55504706
O       8.62629048     5.68771267     9.14046436    -0.62570415    -2.68385294     2.55504706
O       3.29796664     0.69054162     8.66278403    -0.65879761    -2.07252949     1.53011677
O       5.85190742     5.68765326     3.20602300     0.65879761     2.07252949    -1.53011677
