# total energy = -19516.61089416 eV

CRYSTAL
PRIMVEC
        7.60600008     0.00000000     0.00000000
        0.00000000     7.60600008     0.00000000
       -1.89786986    -1.89786986     4.85670466
PRIMCOORD
23 1
Ti      3.76482398     6.83748798     1.27125002     2.23051304    -0.97065505    -0.24301665
Ti      3.97645403     2.89969802     1.20206502    -0.91806235     0.97741269     2.02205023
Ti     -0.00987900     6.61419603     1.22701599    -2.21374533    -1.40137490    -0.98732429
Ti      0.03373299     2.69675601     1.10530300    -0.92579057     2.56263156     1.02835500
Ti      5.80097521     2.74876625     3.63603181    -2.47318439    -0.60463987     1.12078131
Ti      5.62968022    -1.12943078     3.66143079    -0.17442730     0.56979061    -0.81421648
Ti      1.93608123     2.93481422     3.62941980     1.85154875    -0.58138500    -0.16924704
Ti      1.70372024    -0.82785775     3.60625681     1.43174452    -0.35966070     1.26366913
O       4.07838002     4.81553499     0.73937698    -1.11866169     0.84316403     0.83994012
O       4.18934701     1.05674300     0.84750599    -2.04834954    -1.91110400    -1.42211471
O       0.02725803     4.68628101     0.83696198     0.76968161     1.17114255    -0.12835363
O      -0.05947598     0.97304203     0.68593701     0.27247944    -4.10666417     0.76850970
O       5.42886021     4.58039524     4.06431179     1.56374321     1.54034308     0.43327218
O       5.44965920     0.81081623     4.12773183     1.30234111     1.86822698    -1.97732742
O       1.93463022     4.69835123     3.80376280    -0.94638254     2.80381269     1.23820569
O       1.68621521     1.03465720     4.16796682    -0.53648787    -1.34983146    -1.01501611
O       3.90960322     2.80661024     3.28565482    -1.57936601    -0.28890571    -1.59312296
O       3.88775323    -0.94857477     3.15454481    -2.65188384    -0.03857479    -0.70886369
O      -0.07693978    -1.12763179     3.29998780     0.40608224     0.11661243     0.01483913
O       5.73858802     6.82920302     1.59355601     0.44721039    -0.74513837     0.50651188
O       5.72864002     2.75220801     1.66639101     2.19529457     0.47488987     0.25979953
O       1.78461598    -0.55643401     1.76473702     1.35678450    -0.36806101    -0.97243117
O       1.74192498     2.76273298     1.67930601     1.75891804    -0.20203119     0.53510025
