# total energy = -39031.98037708 eV

CRYSTAL
PRIMVEC
        7.60600008     0.00000000     0.00000000
        0.00000000     7.60600008     0.00000000
       -3.79573973    -3.79573973     9.71340985
PRIMCOORD
46 1
Ti      1.95641047     4.61686047     6.32100960    -1.40074961     1.47786602    -0.38576743
Ti      3.66542999     6.82641198     1.39844402     0.08772273     0.41853847     1.16882702
Ti      2.04742647     0.74415646     6.00785664     0.83243918    -0.88746029    -2.36457144
Ti      3.87763700     2.69929098     1.09293697     1.62677254     1.40216911    -0.20648203
Ti     -1.82997552     4.94304845     6.25638060    -0.56102957    -3.00064768     0.42379329
Ti     -0.06733500     6.71007802     1.28657701    -0.62477033     0.94386929    -1.21836782
Ti     -1.86077057     1.00081944     6.02556862    -0.52370845     2.27371067    -0.29241398
Ti     -0.02666201     3.03154999     0.91882200    -1.06946413    -1.79990735     1.63138922
Ti      3.81435645     1.05720645     8.46825763     1.27637116     1.33955759    -1.76403479
Ti      5.78099703     2.96784700     3.67434499    -2.40499665    -1.98781444     1.29986848
Ti      3.73698746    -2.73319954     8.54056060     0.35397033    -0.91106457     1.44795816
Ti      5.81312999    -0.94338302     3.73395897    -1.17576591     0.58263405    -1.74881437
Ti      0.05879344     1.03629744     8.22812864    -0.66724728    -2.02025869     6.03020203
Ti      1.77087801     2.81195900     3.35628401     0.15143289    -2.56853738     1.86358100
Ti     -0.04788456    -3.08114957     8.65055862     0.01855257     1.22243891    -1.99892701
Ti      1.82789501    -1.30277099     3.75169102     1.48692325     0.75078066     0.80450568
O       1.70971047    -1.16340354     5.67389361     0.20240014     1.11566224     0.29651464
O       3.34656699     1.05167702     0.68763398    -0.27418511    -2.84861444     2.10585537
O      -2.05342353     2.91880746     5.93478662     0.23519766     0.48587260    -1.63435601
O       0.03118098     4.84946800     0.71975499    -0.61357934    -0.10610330     1.02129192
O      -2.03997153    -0.90761556     5.55444265     1.52675993    -1.10406990     0.85734855
O      -0.08510202     1.01407501     0.67320099     1.59676030    -0.76928284     1.31654852
O       3.70056043     2.83385043     9.01525064     0.26069453     1.68134037    -1.03907856
O       5.80417398     4.72649002     3.90928000     0.06758610     2.97829836     1.25532487
O       4.11887944    -0.69452254     8.77416564    -0.88504860    -3.43034346     0.42619599
O       5.69334501     1.10517499     4.06234600     0.67056375    -1.98371713     0.94805428
O       0.27108343     2.70447247     9.27287662    -0.70169468    -0.60437145    -2.03366468
O       1.82362302     4.39271898     4.22702199     0.13216349     1.11870514     0.39865689
O      -0.01119956    -0.89255856     8.80254864     0.19476705     1.41788164     0.89184274
O       1.79186301     1.02947402     3.99327699     0.37323844     0.65272157     1.10742416
O       2.00900344     0.99619644     7.79409365     0.75963297     0.27125148     2.26030134
O       4.01582201     2.80297098     3.07317598    -1.34681016     0.57768493    -1.06852310
O       1.79769344    -2.64447456     8.30518764     0.85620390    -1.25353615    -1.18858158
O       3.75230200    -0.87423802     3.29186800     0.49927705    -0.58072089     0.56580000
O      -1.78680154     0.89836845     8.12826062    -1.06246224     1.43254594    -0.52301426
O      -0.26117501     2.77485400     2.87920002     3.27405041     0.46066807     0.14063657
O      -1.91214553    -2.94376653     8.20887961    -0.08457236     0.27178345    -0.77420496
O       0.09168398    -0.80071799     3.34128898    -2.60161027    -0.33963540    -0.11268764
O       3.74385046    -2.57982852     6.70069063     0.25338102    -0.71486619    -2.10045348
O       5.62897800     6.66190501     1.50352100     0.82345857    -0.03091881     1.90181280
O       3.98670943     0.66301845     6.31507261    -3.07310834     1.01195264     0.79263823
O       5.74484798     2.48615701     1.02812102    -1.37434025     2.14478497     0.34360081
O      -0.06401955     4.54532343     6.55352760     1.10836185     0.21625402     0.09624183
O       1.82205300     6.39346101     1.84519302     0.79518748    -0.01579044    -2.08883595
O       0.02560747     1.15377945     6.58366562     0.78817505     0.12611934    -6.40589253
O       1.89743298     2.98032601     1.63095900     0.19309840     0.58256977    -2.44754379
