# total energy = -19953.34115942 eV

CRYSTAL
PRIMVEC
        5.36450137     0.00000000     0.00000000
        1.67517153     5.45817168     0.00000000
        0.00000000     0.00000000     9.71360164
PRIMCOORD
24 1
Ti      2.93707880     3.23450751     3.60367693     1.18524789    -2.39314643     1.04778381
Ti      4.10259401     2.22366429     6.10992477    -1.18524789     2.39314643    -1.04778381
Ti      5.30900287     2.22366617     1.25308511    -2.46749068    -0.41942601     0.83915259
Ti      1.73067002     3.23450584     8.46051669     2.46749068     0.41942601    -0.83915259
Ti      2.09949316     0.50542176     1.25312405     1.18524789    -2.39314643    -1.04778381
Ti      4.94017967     4.95275020     8.46047775    -1.18524789     2.39314643     1.04778381
Ti      0.89308427     0.50541972     6.10988582     2.46749068     0.41942601     0.83915259
Ti      6.14658856     4.95275224     3.60371587    -2.46749068    -0.41942601    -0.83915259
O       2.28775490     1.92191507     4.95677657     0.80614218     1.37793851    -0.84769714
O       4.75191792     3.53625678     4.75682513    -0.80614218    -1.37793851     0.84769714
O       1.57424662     1.92193709     0.10000699     0.22299932    -0.54056950     0.64675867
O       5.46542626     3.53623481     9.61359443    -0.22299932     0.54056950    -0.64675867
O       3.91433225     0.80717087     0.09997548    -0.80614218    -1.37793851    -0.84769714
O       3.12534056     4.65100098     9.61362594     0.80614218     1.37793851     0.84769714
O       4.62784059     0.80714890     4.95680808    -0.22299932     0.54056950     0.64675867
O       2.41183218     4.65102302     4.75679361     0.22299932    -0.54056950    -0.64675867
O       1.21383903     3.31996946     2.62388614     0.16113161     0.61169704     0.48260576
O       5.82583378     2.13820239     7.08971556    -0.16113161    -0.61169704    -0.48260576
O       3.53338768     2.13815149     2.23294560     1.24821371     0.26304812    -0.47188425
O       3.50628513     3.32002036     7.48065593    -1.24821371    -0.26304812     0.47188425
O       0.37625331     0.59088356     2.23291457     0.16113161     0.61169704    -0.48260576
O       6.66341945     4.86728830     7.48068696    -0.16113161    -0.61169704     0.48260576
O       2.66869947     0.59093445     7.08974653    -1.24821371    -0.26304812    -0.47188425
O       4.37097334     4.86723740     2.62385511     1.24821371     0.26304812     0.47188425
