# total energy = -19075.48768138 eV

CRYSTAL
PRIMVEC
        7.60600008     0.00000000     0.00000000
        0.00000000     7.60600008     0.00000000
       -1.89786986    -1.89786986     4.85670466
PRIMCOORD
22 1
Ti      3.81512900     6.63437900     1.20513901     0.92896948    -1.03689261    -0.49953879
Ti      3.82468202     2.72428201     1.18955998     0.53604384     2.05962126     1.15059403
Ti      0.22973198     6.73895401     1.02611999    -1.32252505    -0.83567132     0.52134098
Ti      0.03213402     2.83628301     1.06187602    -0.41124785     0.86449776     1.09356129
Ti      5.72540225     2.86014620     3.57503281    -0.86603631     0.53617214     0.04719184
Ti      6.06255123    -0.87401677     3.62335479    -1.34325638    -0.94185200    -0.98621615
Ti      1.86942320     2.80733320     3.72608180     0.98556386    -0.51538682    -0.41004560
Ti      1.18682821    -0.99405179     3.96673680     2.96970239     0.35416753    -2.12964065
O       3.92699299     4.72460202     0.80969803    -0.55302984     0.55137791    -0.50192915
O       3.98501199     0.91409300     0.86595999    -0.90503045    -0.75165869     0.66386422
O       0.14123402     4.75945898     0.69651998     0.04846557     0.34017353    -0.05635655
O      -0.19398500     1.00614799     0.66294098     0.84570993    -0.21417889     1.13797505
O       5.47717123     4.83139025     4.05526582     1.05709094     0.01426937    -1.38038312
O       5.44584722     0.93173022     3.97208583     1.12481074     0.30780384    -0.39992882
O       1.86368422     4.79726324     4.14906180    -0.84492343     0.27363721    -0.10128865
O       2.09310224     0.86007522     4.09343284    -1.66080625    -0.14250833    -0.46610775
O       3.74842123     2.89362423     3.17160083     0.19964084    -0.05404332     0.25985121
O       0.00524621     2.88343921     3.22028180     0.76363001    -0.29549520    -0.02950856
O       5.75559202     6.58930199     1.71798601    -0.24638119     0.29440068     0.94563307
O       5.76701399     2.92765102     1.61809301    -0.23704320    -0.15981160     0.23211877
O       1.95072001     6.66039002     1.85457502    -0.16476766     0.05304908     0.91328164
O       1.95195898     2.88079602     1.51079301    -0.90457973    -0.70167128    -0.00446806
