# total energy = -19925.87083940 eV

CRYSTAL
PRIMVEC
        5.93400000     0.00000000     0.00000000
        0.00000000     9.29699974     0.00000000
        0.00000000     0.00000000     4.64899994
PRIMCOORD
24 1
Ti      4.34930898     5.51667802     2.15039399     2.94097570    12.71274922     2.42586810
Ti      4.42107600     2.82583498     2.31075200     1.96878338    -5.98508532    -1.20310189
Ti      1.52750998     5.29248599     2.43000098     0.06741101     9.12904069    -0.90274962
Ti      1.43154898     2.71878301     2.12054998    -0.07141473    -3.04418701    -0.66907997
Ti      2.74565601     4.47064102     0.11573101     2.51416110     1.62066283    -1.58460540
Ti      2.95637402     1.43433801     4.41144201     0.09013211    -5.84901915     1.46979404
Ti      0.12107702     4.07952003     4.63643601    -2.34123327     4.20402545     0.81211023
Ti      0.06157702     1.33778999     4.48498998    -1.06762013    -4.32546538    -1.80214035
O       4.40839300     5.46950298     0.36778300     2.86408400    -2.30722142     1.22152462
O       4.37328098     1.37210798     0.94055298     0.15736031    -0.01711918     3.05615139
O       1.33788101     5.55852202     0.45296202    -1.82796401    -2.43664900     1.13899501
O       1.46467002     1.28496402     1.06307201     1.22576437    -0.03008603     0.79146298
O       4.66087701     0.33308602     3.92312000    -0.36540994    -3.15023580     0.36032276
O       4.47897402     2.91756500     4.19815500     0.17878250     3.90479547    -0.56852254
O       1.64124499     9.25847897     3.98901399    -0.02589719     2.12960877     0.41798260
O       1.70073102     2.96175898     3.98975802    -0.75665589     1.30239150     0.66942372
O       2.99949302     5.90954699     3.81231197    -1.02473771     0.65225595    -5.32854694
O       3.20266602     1.37631298     2.69820399    -1.65556788     2.82505233    -2.80060961
O       0.00317501     5.66560601     3.58916100     0.21017902     1.42315524    -0.37226142
O       5.83270003     1.52782701     2.59870100     1.56672132     3.19767679     0.18745509
O       2.77423301     6.54781799     1.62271802     0.25682116     0.24809998     2.03442495
O       3.23420001     4.20510300     1.89158599    -5.19163565    -6.22186756     1.83256988
O       0.06990400     6.90774800     1.76760003    -0.53702189    -1.46520462     1.35137464
O       5.83857500     4.42821201     2.01021700     0.82398230    -8.51737322    -2.53784200
