# total energy = -39034.22807486 eV

CRYSTAL
PRIMVEC
        5.93200024     0.00000000     0.00000000
        0.00000000     9.29399984     0.00000000
        0.00000000     0.00000000     9.29399984
PRIMCOORD
46 1
Ti      4.47999401     7.00621000     6.81547801    -0.69775832    -0.00737547     0.32396118
Ti      4.43483397     6.79970498     2.45168799    -0.83504217     0.26921646     0.31290826
Ti      4.47147003     2.24231102     6.96688801    -0.15860010     0.29352316     0.39658073
Ti      4.16963701     2.73996201     2.06659898     0.99499261    -1.45799807     0.21882307
Ti      1.54322400     6.85911900     7.04503801    -1.19211813     1.44233644    -0.39570938
Ti      1.39111698     7.20010298     2.12603702     0.63673368    -1.09285166     0.18526451
Ti      1.53796800     2.38214097     6.97386500     0.30625758    -0.06573876     0.03666883
Ti      1.13857301     2.01614902     2.71836401     1.36125488     0.73753844    -1.58277401
Ti      3.00678000     4.63496902     4.63590598    -0.34244767     0.73220417     0.03131348
Ti      2.93748900     4.80908501     9.12996500     0.37162096     0.03139935     1.18593283
Ti      3.04186599     0.01251102     4.58880302     0.33708435    -0.85781418    -0.16667671
Ti      3.01344001     9.22215900     9.25786402    -1.24223538     0.70467562     0.95288178
Ti      0.03415098     4.63656301     4.77956999    -0.33933226     1.14345510     0.13181048
Ti      0.00910799     4.64313698     9.27042499     0.12406863     0.38854294     0.31478465
Ti      0.09190602     9.10923702     4.87503801    -0.07202820     0.27605379    -1.45184104
Ti      5.89988299     0.02440899     9.17854702     1.12674061     0.67095842     0.63114872
O       4.43979501     5.60594202     5.58239098    -0.16222921    -0.79766191    -0.48627086
O       4.45374899     5.58132400     0.98694298     0.17708197    -1.45886633    -0.61105503
O       4.57849898     0.80418802     5.63516001    -0.56496259     0.92702702    -0.22990916
O       4.39541302     1.05914700     0.79674398    -0.25982318    -0.48917801    -0.41897864
O       1.64506401     5.63556901     5.66564099    -0.95500783    -1.48089169    -1.30712799
O       1.51223099     5.72873299     0.74410502     0.11406858    -0.97414764     0.86805154
O       1.55918298     0.80983302     5.65414102    -0.41792706     0.96285407    -0.83625830
O       1.46406099     0.77225000     0.87754400     0.35251997     0.84846333     0.94556930
O       4.57739999     8.27552800     8.21887698    -1.01576147     1.61863577     1.07529565
O       4.47208202     8.36587602     3.80799198     0.17803379     0.40070143    -0.77524960
O       4.48452001     3.79484098     8.42352099    -0.40179492    -0.46865417     0.96824901
O       4.50905701     3.89422401     3.64811801    -0.02813456    -1.00744241     0.05261122
O       1.40310300     8.35757497     8.36502902     1.12828096     0.13357940    -0.89141337
O       1.44340398     8.14063902     3.73552597     0.55689292     2.66783214     0.41933783
O       1.60539101     3.66517001     8.55046701    -0.47005825     0.09194988    -0.25561866
O       1.36102701     3.66909798     4.02238000     0.75509574    -1.64192971    -1.38770485
O       2.96797300     6.14426901     7.88571699     1.67382220    -0.28465131     0.03635438
O       2.91857298     5.90040100     3.20043199     0.52112964     1.05348857    -0.55560506
O       2.96854001     1.49504501     7.87835603     0.13552136    -0.61398069    -0.11534384
O       3.01859002     1.58142102     3.06778901    -0.71933682    -0.04594949     0.61171041
O       0.04980098     5.95562398     7.92404101    -0.25009670     0.29503394    -0.70585087
O       0.00690100     6.13110699     3.27485702     0.13695706    -0.28414789    -0.56045750
O       0.15247697     1.53111500     7.86507002    -1.05496773    -0.89689033     0.42550590
O       2.96950200     7.90290302     5.92193100     0.48201132    -0.38184984     1.14586577
O       3.03180702     7.92630001     1.38589400     0.02453913    -0.19016889     0.12632297
O       3.10319102     3.36110201     6.11112399    -0.36417324    -1.32463413     0.17377604
O       0.07533198     7.68676798     5.95915503     0.00668744    -0.04760091     0.81061925
O       0.00026798     7.94775302     1.21483301    -0.76082853    -1.00348728     1.86406642
O       5.84444601     3.31938098     6.26479902     1.12897130     0.87810302    -1.57694763
O       0.09601799     3.07483500     1.58609398    -0.32570156     0.30633780     0.06537881
