# total energy = -4987.71071763 eV

CRYSTAL
PRIMVEC
        2.88525453     0.00000000     0.00000000
        1.11280294     4.38166090     0.00000000
       -0.00000716    -0.00005924     4.55705524
PRIMCOORD
6 1
Ti      1.99902504     2.19080074     2.27852767     0.00000000     0.00000000     0.00000000
Ti      0.00000000     0.00000000     0.00000000     0.00000000     0.00000000     0.00000000
O       1.65949469     0.85390957     0.88810297    -2.80074254     1.30511662     1.40593629
O       2.33855534     3.52769191     3.66895237     2.80074254    -1.30511662    -1.40593629
O       0.33952731     1.33686719     3.16663156     2.80049005    -1.30505183     1.40578023
O       0.77326835     3.04473438     1.39042378    -2.80049005     1.30505183    -1.40578023
