# total energy = -4987.20940535 eV

CRYSTAL
PRIMVEC
        3.76178705     0.00000000     0.00000000
        1.61122831     3.39926244     0.00000000
       -2.68654329    -1.69965375     4.93354560
PRIMCOORD
6 1
Ti      1.20832621     2.54957766     1.23338635     0.00059290    -0.00059290     0.00000000
Ti      1.47814611    -0.84996877     3.70015894    -0.00059290     0.00059290     0.00000000
O       0.40284615     0.84981115     0.80363420     0.00007122     0.00008408    -2.23160396
O       2.28362604     0.84979762     4.12991114    -0.00007122    -0.00008408     2.23160396
O      -0.40281226    -0.84978974     3.27040685     0.00008408     0.00007122    -2.23160396
O       3.08928438     2.54939847     1.66313849    -0.00008408    -0.00007122     2.23160396
