# total energy = -19075.06213120 eV

CRYSTAL
PRIMVEC
        5.17600016     0.00000000     0.00000000
        0.00000000     5.50899976     0.00000000
        0.00000000     0.00000000     9.26300011
PRIMCOORD
22 1
Ti      1.87101899     3.40087301     3.26363200     0.14440915     0.79963909     0.65142599
Ti      3.60145199     2.24403100     5.82588200    -0.61449825     0.25096624     0.31527676
Ti      4.41413499     2.22957600     1.34368200    -1.21175803     0.30785424    -2.68017395
Ti      0.84534600     3.21632901     8.14623100    -1.07117854     1.53482009     0.00438296
Ti      1.78661998     0.51161402     1.28648302     0.88374068     0.43796470    -1.78506051
Ti      3.18182300     4.99890099     7.98310402     1.17116518    -0.15543636     1.57450868
Ti      0.63954299     0.29898202     6.02564001    -0.50931824     0.89085749    -1.58207955
Ti      4.46698498     4.95859398     3.39848102    -0.72575764     0.18944152     1.61456597
O       3.40204498     3.59488098     4.46179698     0.27245810    -0.78218515     0.75486768
O       0.82382701     2.01993799     0.19461298     0.68042651    -1.96136832     0.56984666
O       4.27506901     3.63709202     9.07873000     0.54417084     0.14182519    -0.39769170
O       3.35906002     0.85489902     0.24134102     0.70515127     0.59003754    -0.89897344
O       1.73640201     4.69163703     9.14892500    -1.74201251    -0.62401108    -0.24242606
O       4.17990299     0.92032798     4.61057898     0.34485602    -0.53217561     0.63153799
O       1.00001001     4.74979498     4.43805100    -1.05294633    -0.01869064     0.82522569
O       0.10793200     3.52059799     2.39746500     0.45201399    -0.56157593     0.30667127
O       0.14003898     2.30865498     6.52745303     0.05863609    -0.91211821     0.17222721
O       2.62466201     2.02993600     2.24586799     0.27146000    -0.17478623     0.52906741
O       2.58359600     3.40550098     7.14428097    -0.58590552    -0.77300014    -0.67247022
O       0.02656602     0.69559101     2.16255099     0.67407691     0.01067702    -0.10049263
O       2.34904999     0.59222099     6.62449202     0.60383331     0.79453699     0.09125646
O       2.68537298     4.72047899     2.31431903     0.70697676     0.54672806     0.31850735
