# total energy = -4980.70702823 eV

CRYSTAL
PRIMVEC
        4.50658833     0.00000000     0.00000000
        0.00000000     3.02620637     0.00000000
        0.00000000    -0.00009699     6.00437817
PRIMCOORD
6 1
Ti      2.25329417     1.51305464     3.00218897     0.00000000     0.00000000     0.00000000
Ti      0.00000000     0.00000000     0.00000000     0.00000000     0.00000000     0.00000000
O       2.25329417     0.58974414     1.17016485     0.00000000     0.07393570     2.69108289
O       2.25329417     2.43636519     4.83421309     0.00000000    -0.07393570    -2.69108289
O       0.00000000     0.92327203     4.17235497     0.00000000    -0.07449800     2.68842231
O       0.00000000     2.10283724     1.83202292     0.00000000     0.07449800    -2.68842231
