# total energy = -19072.13682354 eV

CRYSTAL
PRIMVEC
        5.17600016     0.00000000     0.00000000
        0.00000000     5.50899976     0.00000000
        0.00000000     0.00000000     9.26300011
PRIMCOORD
22 1
Ti      1.76776301     3.30437500     3.32823301    -0.81080642    -0.17848579     0.87089236
Ti      3.73988899     2.38171499     5.76126200    -1.39747993    -1.46765488    -0.12699635
Ti      4.29541598     2.12533898     1.59518000     0.57499555    -2.21719575     0.33843958
Ti      0.94614601     3.36618999     8.24733698     0.24080935    -3.55984380     0.20292542
Ti      1.75068599     0.36512299     1.25390301     0.28412989     1.79551822    -0.41073980
Ti      3.50147701     5.31893501     7.87264499     0.18056736     1.54096066    -0.66381692
Ti      1.13109002     5.38769302     6.18821400    -1.30722415     1.69147618    -1.45795153
Ti      4.23865601     5.04455100     3.48256702    -0.25540628     1.03145678     1.36209768
O       3.17206301     3.81196901     4.60235202     1.34760514    -0.78326707     0.23471455
O       0.61599402     2.22424401     0.56385402     1.45777798     0.61567556    -2.92907123
O       4.54055200     3.49740701     7.45823998    -1.05902133     1.07309350    -0.90109666
O       3.46710198     0.88638401     0.21775300    -0.23600730    -0.37158419    -0.85512249
O       1.64459902     4.80457499     8.92200099     0.32454070     2.46946631     2.19849405
O       3.85809200     1.18015200     4.29239697     0.42095659     0.48491821     1.13946963
O       0.93371902     4.97528302     4.40328400    -1.15694209    -0.78490461     0.82790658
O       4.94119400     3.52910800     2.60617901     1.55275817    -1.15020322     0.00943852
O       4.85338698     0.96387900     6.74589702     0.77859229    -1.46097258     0.92697148
O       2.50158602     1.79258899     2.32467598    -0.46996312     1.68948023     0.51167157
O       2.25788799     4.12791202     6.87690999    -0.28541518    -3.14424976     0.12672869
O       0.16308301     0.53774198     2.21348800    -1.06500223     0.46756531    -0.38689306
O       2.46433099     1.03625802     6.65331302     0.27270673     1.71562810     0.25764057
O       2.54392401     4.59538699     2.34520398     0.60782855     0.54312209    -1.27570267
