# total energy = -19518.19265044 eV

CRYSTAL
PRIMVEC
        5.93400000     0.00000000     0.00000000
        0.00000000     9.29699974     0.00000000
        0.00000000     0.00000000     4.64899994
PRIMCOORD
23 1
Ti      4.50523598     6.95397799     2.26657300     0.82236482     0.27266919     0.07316694
Ti      4.45387901     2.29022601     2.36383901    -0.52750520    -0.66835389    -0.02505490
Ti      1.51948098     7.06092302     2.28792001    -0.67756872     0.09082142    -0.46881564
Ti      1.40488400     2.35960400     2.30652102     0.60743055    -0.64193605    -0.09898622
Ti      2.94107201     4.51138200     0.11093402     0.20532375    -0.50738554     0.70016719
Ti      2.96781800     9.29205098     4.53871602     0.17003149     0.62055243     0.38333928
Ti      5.93354602     4.65285098     4.64647101     0.20520239     0.24987455    -0.44313776
Ti      0.01350000     0.05500401     0.02495102    -0.43440681     0.44850186     0.52873445
O       4.51015601     5.57725902     0.83496502    -1.30440956     0.47900518     0.79397983
O       4.45534398     0.95486500     0.95059300    -0.02764811    -0.16453344    -0.26340447
O       1.49808402     5.50911099     0.96664200     0.52746638     0.54522654    -0.13505239
O       1.50679100     0.88423000     0.88476902    -0.36670244     0.59154421     0.73978070
O       4.47241799     8.44526102     3.76108698    -0.03456438    -0.86714986    -0.84994943
O       4.44114002     3.78099902     3.79070498    -0.42310346    -0.39619326    -0.58883324
O       1.43952198     8.49188000     3.74233902     0.40399476    -1.71364089    -1.15292499
O       1.46501002     3.63653300     3.79387300     0.50040885     1.06224729     0.26939823
O       2.85532201     1.46241599     3.26757199     1.04736060    -0.50890944     0.09023676
O       0.05907603     6.02280600     3.18787901    -0.08661767     0.30078781     0.20720734
O       0.02783499     1.41661702     3.19500602    -0.55767351    -0.22160269     0.57314230
O       3.01689999     7.89425902     1.37209099    -0.51785534    -0.87458240     0.87589058
O       2.96908200     3.17602099     1.49864400    -0.00017149     1.25478288    -1.06146465
O       5.89839003     7.83108002     1.38052899     0.36882077     0.55457816    -0.04623231
O       5.86680698     3.26379102     1.45895602     0.09982260     0.09369566    -0.10118760
