# total energy = -19958.74483587 eV

CRYSTAL
PRIMVEC
        7.60600008     0.00000000     0.00000000
        0.00000000     7.60600008     0.00000000
       -1.89786986    -1.89786986     4.85670466
PRIMCOORD
24 1
Ti      3.70394298     6.59521200     1.34512899    -2.62625018     1.35180221    -0.41383669
Ti      3.70320198     3.01632303     1.23684800     0.82644954    -1.17335422     0.93708517
Ti     -0.12259698     6.62014001     1.12368201     2.46587319    -1.44420692     0.41482837
Ti      0.09656400     2.72521198     1.14219703    -0.67573167     1.33213609    -0.71955614
Ti      5.79940525     2.91476724     3.59706082    -0.71118694    -1.75356243    -1.53857981
Ti      5.82743323    -1.04494975     3.58572881    -1.19572719     1.47693245     0.05684171
Ti      1.83556221     2.93518121     3.75299083     1.75875606     0.57172794    -1.76465057
Ti      1.80037721    -0.94707376     3.77286880     1.49222126    -0.64345866    -0.21729738
O       3.68356098     4.86155298     0.73869699     0.50075544    -0.98669206     1.68665381
O       3.64733901     1.14211601     0.79664598     0.50117941    -1.86585077     1.16868741
O       0.16735299     4.67398399     0.56814999    -0.76587098     0.17378915     1.65733166
O       0.37694301     0.83124501     0.64032903    -1.51407205     0.44530906     1.09847724
O      -1.51040078     4.64888220     4.12084983    -1.02945338     1.70953818    -0.69518310
O       5.82673524     0.90242824     3.80113882    -0.60194741    -1.05403364     0.57039842
O       1.54095023     4.76702722     4.18742482     0.53792332     1.39264189     0.42168344
O       1.94252322     1.09497420     4.17698781     0.05029800    -1.05450981    -1.38278093
O       3.72488422     3.15756123     3.30989680     1.54432366    -0.44081940    -0.96677474
O       3.65285822     6.29861525     3.31094680     1.63426088     1.00593009     0.10898730
O       0.13359323     2.87503524     3.06802280    -1.36533265    -0.79076004     0.09697922
O      -0.00141476    -1.01859577     3.22544980    -1.20236450     0.61385908    -1.54246938
O       5.54161798     6.55181698     1.51728199     3.04290121     0.29179281     0.74004398
O       5.91952801     3.05368802     1.54743202    -1.64279129    -0.69891172     0.19107700
O       1.83577102     6.32245500     1.75742702    -0.94381427     1.46213343    -0.27959420
O       1.93135700     2.95102800     1.51398400    -0.08039868     0.07856729     0.37164770
