# total energy = -19071.73159251 eV

CRYSTAL
PRIMVEC
        7.60600008     0.00000000     0.00000000
        0.00000000     7.60600008     0.00000000
       -1.89786986    -1.89786986     4.85670466
PRIMCOORD
22 1
Ti      3.98749102     6.57072703     1.31662602     0.22808110     0.40843789     0.01522762
Ti      3.60514702     2.77254001     1.26908802     0.53640945    -0.87143974    -2.00327166
Ti      0.04691902     6.69325500     1.05632299     0.87648991    -0.76274066     2.57698603
Ti     -0.17230001     2.74345002     1.00038700     0.57182333     1.35960166     0.63531571
Ti      5.80354321     2.95245324     3.50679683    -0.27609904    -0.43776930     0.31784349
Ti     -1.30415077    -0.62945475     3.74623583    -1.07143231    -0.24931945    -0.48761838
Ti      1.85002923     3.01167325     3.70680980    -2.04253936    -1.65933120     3.02331453
Ti      1.65874721    -0.98920278     4.02153083    -1.03294493     0.39892249    -1.56308372
O       3.76300001     4.60449698     0.85787300    -0.72645107     2.06786473    -0.19225380
O       4.13109100     0.77745198     1.01410200    -0.73673086     0.31079327     0.96574759
O      -0.09880898     4.56233098     0.62997599     1.10287177     1.94618569     0.11187440
O       7.04252802     1.04286199     0.32403502     0.08007395    -0.34834270     1.50383725
O       5.48262721     4.78660323     4.23204881     0.83899730    -0.86577920    -4.77037670
O       5.46017321     1.09187920     3.66909079     1.38293417    -1.11940602     0.30757990
O       2.28568921     4.74634824     4.20515380    -0.63132022    -0.47068457     0.04122971
O       1.82383125     0.79880920     4.19739982     0.26921414     1.22245459    -0.69783442
O       3.41456124     2.64050822     3.10455381     2.14000760     0.17519298    -0.24607549
O       0.05589223     3.05254923     3.06463781     0.08940757    -0.36413725    -0.24427443
O       5.90644601     6.56716000     1.72037302    -0.49342162    -0.20521756     2.07077060
O       5.62348303     2.97153002     1.60505403    -0.65475017    -0.34520904     0.52097923
O       1.86054900    -0.85545000     2.19412800     0.63071781    -0.96552879    -2.10666372
O       1.76904902     2.09367799     0.83221600    -1.08133877     0.77545271     0.22074626
