# total energy = -19933.19695269 eV

CRYSTAL
PRIMVEC
        6.08341038     0.00000000     0.00000000
        0.32356056     6.46649841     0.00000000
        0.00000000     0.00000000    10.89137149
PRIMCOORD
24 1
Ti      2.39668527     3.83204081     4.04062114     0.00514684    -1.09795762     0.68268059
Ti      4.01028541     2.63445736     6.85075048    -0.00514684     1.09795762    -0.68268059
Ti      5.37836734     2.63445957     1.40502114     0.06810623     0.56663124    -0.54296088
Ti      1.02860341     3.83203885     9.48635060    -0.06810623    -0.56663124     0.54296088
Ti      2.23490512     0.59879185     1.40506479     0.00514684    -1.09795762    -0.68268059
Ti      4.17206556     5.86770650     9.48630695    -0.00514684     1.09795762     0.68268059
Ti      0.86682325     0.59878945     6.85070677    -0.06810623    -0.56663124    -0.54296088
Ti      5.54014749     5.86770890     4.04066485     0.06810623     0.56663124     0.54296088
O       2.03936887     2.27696392     5.55778351     1.45939469     1.43075876    -0.12896967
O       4.36760181     4.18953425     5.33358811    -1.45939469    -1.43075876     0.12896967
O       1.23023540     2.27699002     0.11213277    -1.23491905     1.03650694     0.19944672
O       5.17673535     4.18950821    10.77923854     1.23491905    -1.03650694    -0.19944672
O       4.20582166     0.95628510     0.11209745    -1.45939469    -1.43075876    -0.12896967
O       2.20114902     5.51021307    10.77927386     1.45939469     1.43075876     0.12896967
O       5.01495519     0.95625907     5.55781889     1.23491905    -1.03650694     0.19944672
O       1.39201543     5.51023923     5.33355273    -1.23491905     1.03650694    -0.19944672
O       0.41783223     3.93329076     2.94203121     0.44621640     0.06060529     0.56311500
O       5.98913851     2.53320741     7.94934047    -0.44621640    -0.06060529    -0.56311500
O       3.38949119     2.53314716     2.50368924     0.51704107     0.59127424    -0.09133745
O       3.01747955     3.93335101     8.38768220    -0.51704107    -0.59127424     0.09133745
O       0.25605208     0.70004161     2.50365448     0.44621640     0.06060529    -0.56311500
O       6.15091866     5.76645655     8.38771695    -0.44621640    -0.06060529     0.56311500
O       2.85569940     0.70010186     7.94937517    -0.51704107    -0.59127424    -0.09133745
O       3.55127134     5.76639631     2.94199639     0.51704107     0.59127424     0.09133745
