# total energy = -19076.25289700 eV

CRYSTAL
PRIMVEC
        7.60600008     0.00000000     0.00000000
        0.00000000     7.60600008     0.00000000
       -1.89786986    -1.89786986     4.85670466
PRIMCOORD
22 1
Ti      3.77255298     6.63865799     1.23944599     0.61670195     0.06000957    -1.15791011
Ti      3.72681799     2.84112498     1.14945898     1.04837876     0.07646335     0.97979147
Ti      0.16994099     6.68191098     1.02502099    -0.32373415     0.31599307     1.94969088
Ti      0.04494302     2.92642698     1.21772898    -0.99193994    -0.50408065    -1.84270183
Ti      5.63615322     2.91481323     3.50782280    -0.67453482    -1.29394620     0.30088963
Ti      6.07209621    -0.98588680     3.66205680    -0.46107841     1.65330402     0.20876440
Ti      1.81900721     2.75549320     3.66277580     1.01012999     0.41798825    -0.89809489
Ti      1.57083023    -1.06693278     3.87992283    -0.08519019    -0.04996170    -1.56954928
O       3.54336102     4.77169900     0.64858398     0.21060428    -0.17326079     1.46703678
O       3.87203698     0.90080198     0.87907999    -0.64609481     0.37522076     0.70792652
O       0.15651999     4.80892800     0.65827300    -0.18123199    -0.00357358     0.90720637
O      -0.10991101     0.98111499     0.76985701     0.82866608     0.44644266     0.18648475
O       5.44073822     4.83621624     4.06594483     0.52134432     0.08644181    -1.82996690
O       5.76812024     1.02553720     3.99864883     0.26074672    -1.36171407     0.08485081
O       2.19870623     4.78701821     4.08655179    -0.85452471    -0.11292572     0.22160449
O       1.97946222     0.88500222     4.05897483    -0.63681364    -0.25912050    -0.03486186
O       3.79968221     2.78472924     3.22352381    -0.89465861     0.09729264    -0.29630612
O      -0.05924579     2.87862121     3.14634579     0.94531656     0.46543772     0.36375081
O       5.64850401     6.70241601     1.82117298     0.02829474    -0.74809360     0.38966060
O       5.62835098     2.86313600     1.52300398     0.42294431     0.78618373     0.30320362
O       1.96890202     6.69278700     1.95685403    -0.12520429    -0.13344082    -0.18644516
O       1.88395197     2.82483701     1.65024402    -0.01812166    -0.14066022    -0.25502473
