# total energy = -19520.00340503 eV

CRYSTAL
PRIMVEC
        5.17575250     0.00001323     0.00000000
        0.00001429     5.50856584     0.00000000
        0.00000000     0.00000000     9.26345890
PRIMCOORD
23 1
Ti      1.84805753     3.38432322     3.40641286    -0.00004037    -0.02985952    -0.03963871
Ti      3.37752502     2.17357357     5.77136243    -0.01936016    -0.00192164     0.00228931
Ti      4.56698560     1.94691538     1.42734327    -0.00001183    -0.01049936    -0.03312456
Ti      0.85089095     3.30166613     7.94635834     0.01646535     0.00429709     0.00702991
Ti      2.01967320     0.50843753     1.24259789     0.00302825    -0.02496979    -0.00844865
Ti      3.16308791     5.15971115     7.91972934     0.00942464     0.02303221     0.01239581
Ti      0.63243060     0.71429898     5.64737687    -0.00349464    -0.00821571     0.06420690
Ti      4.56410452     4.84080538     3.56191232    -0.00927217    -0.03179016     0.03357245
O       1.54518974     1.95080970     4.65707336    -0.00127321    -0.00026611    -0.00581892
O       3.56778853     3.53095424     4.51219447     0.00398804     0.01336897    -0.01289614
O       0.73710693     2.10574968     0.10306298    -0.01218960     0.00555641     0.01576035
O       3.51894670     0.89236559     0.07349368     0.02251722    -0.04959068    -0.01470440
O       1.71942142     4.68798496     9.15254326    -0.03410852     0.04868591     0.00465807
O       4.07121026     0.77699498     4.69808744    -0.00878443    -0.01698883     0.00485373
O       1.02147426     4.63312277     4.62009442     0.00289301     0.00742072    -0.00643316
O       0.16866289     3.35466167     2.40915447     0.04712602     0.02909976    -0.01284035
O       4.95133844     2.13590595     6.83285965    -0.02209504     0.01847647     0.00444518
O       2.77797786     2.14500564     2.09961908    -0.00990698    -0.06314555    -0.00908320
O       2.48756297     3.39776356     7.14151759     0.03008835     0.03126720    -0.00738755
O       0.25767881     0.53757098     2.18664188     0.03009117     0.03241237     0.01882640
O       4.90386668     4.76507873     7.37833032    -0.02165230    -0.01624938    -0.02009369
O       2.32824590     0.71701164     6.74755151    -0.02455636     0.04004315    -0.01261641
O       2.80396118     4.87334373     2.45810556     0.00112357    -0.00016352     0.01504764
