# total energy = -19960.36307325 eV

CRYSTAL
PRIMVEC
        7.60600008     0.00000000     0.00000000
        0.00000000     7.60600008     0.00000000
       -1.89786986    -1.89786986     4.85670466
PRIMCOORD
24 1
Ti      3.80950400     6.86795800     1.25781400     1.14836694    -2.01199541     0.40146608
Ti      3.79220901     2.93782498     1.22654301     0.66861331     1.40015054    -1.58810725
Ti      0.07828802     6.47496499     1.28311402    -1.63908684     1.04280589    -0.79351266
Ti      0.06550902     2.78499102     1.22056902    -0.79900943    -0.65000160    -0.67950991
Ti      5.66951621     2.85569725     3.57423381    -0.09328917    -0.05271021    -0.17356084
Ti      5.61404224    -1.07938078     3.61709383    -0.78363474     0.34028486     0.28181718
Ti      1.95393720     3.00229422     3.61451483    -0.54874844    -1.03498485     1.96681777
Ti      1.84265424    -0.93421079     3.64838683     1.21448880     1.02494443     0.24017583
O       3.85527101     4.85500002     0.77788601    -0.76273809    -0.44101378    -0.46070046
O       4.08310002     1.06321198     0.82340499    -1.19835023    -1.21336934    -0.65472086
O       0.19638498     4.66318899     0.68663002    -0.18200383     0.15651468     0.15114493
O      -0.01748502     0.78974302     0.81810200     0.50941029     0.55134037     0.37086686
O       5.19795123     4.75308821     3.99788581     1.54088738    -1.59997367     0.97417541
O       5.59003225     0.85813923     4.01178079     0.66441110     0.81571775     0.67317985
O       2.12276321     4.86531025     4.00034183    -0.76202127     0.01150441     0.71951295
O       1.92214323     1.05278121     4.10568382    -0.83111095    -0.86109208    -0.68256284
O       3.77336024     2.86655623     3.11157980     0.60752851    -0.14009509     1.49274782
O       3.76272325    -0.83863476     3.17302881    -0.99140849     0.77829198     0.08684675
O      -0.01555379     3.16807122     3.19075779    -0.15242662    -0.50432593    -0.27310319
O      -0.07762977    -1.18179679     3.19468179     0.83395562     0.39529569     0.34085616
O       5.57870399     6.40949100     1.67616100     1.48992450     0.59450355    -0.27035648
O       5.66932697     2.85918802     1.60975402     1.61536172     0.06841811     0.30470900
O       1.90013601     6.41585600     1.71150798    -0.24022494     1.13558778    -0.83749731
O       1.93413697     2.62341400     1.73326002    -1.30889485     0.19420218    -1.59068401
