# total energy = -19959.88257659 eV

CRYSTAL
PRIMVEC
        7.60600008     0.00000000     0.00000000
        0.00000000     7.60600008     0.00000000
       -1.89786986    -1.89786986     4.85670466
PRIMCOORD
24 1
Ti      3.88342398     6.61490698     1.27726798    -1.11704087     2.04374495     0.06388242
Ti      3.68892901     2.94575999     1.17520102     0.90029473    -1.98966897    -0.21599589
Ti      0.02326501     6.50607702     1.23688499     0.65069014    -0.78424023    -0.16668005
Ti      0.03057898     2.72614799     1.10599802    -1.43993246     1.15420849     1.15590593
Ti      5.64850422     2.85666723     3.55169980     2.51061375    -0.23018452    -0.14115413
Ti      5.75112423    -1.08185277     3.64925384    -1.35696550    -0.25425237     0.22886683
Ti      1.99708123     3.02008622     3.68398982    -3.23039897     0.62213778    -0.48661822
Ti      1.78548421    -0.84769078     3.66762380     1.62084615    -0.55887627    -0.12892210
O       4.00969599     4.82013502     0.70939502    -0.46373591    -0.62434404     0.36565677
O       3.83829098     0.99826801     0.94331502    -0.15495402     0.84723126    -0.56022945
O       0.04607901     4.73542898     0.73667601    -0.26648440    -0.82150787    -0.09942305
O       0.17318701     0.73091798     0.76972302    -0.70130490     1.48942956     0.04855453
O       5.66155320     4.62505923     3.90803183    -0.81719870     2.57827981     1.43966738
O       5.76547520     0.91111924     4.05328781    -0.20368338    -0.62832848     0.11303885
O       1.87649020     4.96346024     4.06729280     0.49336454    -2.30114435     0.82509071
O       1.67226620     1.01732321     4.09625679     0.14259009     0.54571093    -0.02042999
O       3.73681722     3.10730722     3.14526182    -0.11907812    -0.43852752     0.13938470
O       3.77596824    -0.89599879     3.13175383     0.67948291     0.32378505     1.93504021
O      -0.04102277     3.27197422     3.27287382     0.22452398    -1.93532920    -0.61041586
O      -0.03004277    -1.11710079     3.20668883     0.30367079     0.67403911     0.10241890
O       5.70436301     6.48395101     1.75982101     0.99610076     0.43724659    -1.57889781
O       5.65083001     2.93980997     1.63305200     0.29011516    -0.98459095    -0.82529768
O       1.95905202     6.42429701     1.75714100    -1.32726257     0.51561076    -1.01277977
O       1.72802302     2.71538299     1.71415900     2.38574679     0.31957050    -0.57066299
