# total energy = -4981.94014911 eV

CRYSTAL
PRIMVEC
        4.38569080     0.00000000     0.00000000
        0.00000000     3.30860620     0.00000000
        0.00000000    -0.00008747     5.80075531
PRIMCOORD
6 1
Ti      2.19284534     1.65425919     2.90037771     0.00000000     0.00000000     0.00000000
Ti      0.00000000     0.00000000     0.00000000     0.00000000     0.00000000     0.00000000
O       2.19284534     0.64478150     1.13048180     0.00000000     0.21897528     2.36141926
O       2.19284534     2.66373688     4.67027363     0.00000000    -0.21897528    -2.36141926
O       0.00000000     1.00944291     4.03086071     0.00000000    -0.21898119     2.36135293
O       0.00000000     2.29907547     1.76989472     0.00000000     0.21898119    -2.36135293
