# total energy = -19951.67204545 eV

CRYSTAL
PRIMVEC
        4.91548343     0.00000000     0.00000000
        1.03597827     5.12796034     0.00000000
        0.00000000     0.00000000     8.84239248
PRIMCOORD
24 1
Ti      2.39554600     3.03882455     3.28046466     1.79031173    -0.94484271     0.52861643
Ti      3.55591545     2.08913591     5.56192818    -1.79031173     0.94484271    -0.52861643
Ti      4.66134562     2.08913775     1.14069643    -2.91846028    -0.43966832     1.59816798
Ti      1.29011586     3.03882291     7.70169650     2.91846028     0.43966832    -1.59816798
Ti      1.87755699     0.47484457     1.14073188     1.79084241    -0.94613675    -0.52714988
Ti      4.07390448     4.65311604     7.70166105    -1.79084241     0.94613675     0.52714988
Ti      0.77212676     0.47484259     5.56189272     2.91906449     0.43953539     1.59585116
Ti      5.17933471     4.65311802     3.28050011    -2.91906449    -0.43953539    -1.59585116
O       1.92056701     1.80564203     4.51220534    -1.01288492    -0.40120100    -0.66414113
O       4.03089445     3.32231843     4.33018750     1.01288492     0.40120100     0.66414113
O       1.26677861     1.80566268     0.09103740     1.17578031    -1.04831500    -0.05319332
O       4.68468290     3.32229782     8.75135518    -1.17578031     1.04831500     0.05319332
O       3.51290542     0.75833830     0.09100869     1.01334721     0.40140180    -0.66406066
O       2.43855604     4.36962216     8.75138389    -1.01334721    -0.40140180     0.66406066
O       4.16669387     0.75831769     4.51223404    -1.17513702     1.04792856    -0.05276291
O       1.78476754     4.36964282     4.33015879     1.17513702    -1.04792856     0.05276291
O       0.80873154     3.11911611     2.38855090    -0.61540585    -0.84959024    -1.33631337
O       5.14272992     2.00884436     6.45384194     0.61540585     0.84959024     1.33631337
O       3.04217013     2.00879646     2.03267365     0.79477996    -1.41072755    -1.36932120
O       2.90929133     3.11916400     6.80971903    -0.79477996     1.41072755     1.36932120
O       0.29074251     0.55513598     2.03264540    -0.61519117    -0.84983219     1.33912615
O       5.66071895     4.57282453     6.80974729     0.61519117     0.84983219    -1.33912615
O       2.39130229     0.55518382     6.45387014    -0.79454265     1.41028043    -1.37046200
O       3.56015916     4.57277664     2.38852264     0.79454265    -1.41028043     1.37046200
