# total energy = -4987.91677171 eV

CRYSTAL
PRIMVEC
        4.49722287     0.00000000     0.00000000
       -0.00000838     3.67954578     0.00000000
       -2.24864144    -1.83981494     5.27039136
PRIMCOORD
6 1
Ti     -0.00019519     2.75979647     1.31759798    -0.00237030    -0.00126241     3.12694109
Ti      2.24876824    -0.92006586     3.95279355     0.00237030     0.00126241    -3.12694109
O       0.00004639     0.91987870     0.85850375     0.00001517     0.00042012    -0.68427468
O       2.24852655     0.91985180     4.41188784    -0.00001517    -0.00042012     0.68427468
O      -0.00002175    -0.91987033     3.49369931    -0.00225100    -0.00023654    -1.64520761
O       2.24859458     2.75960083     1.77669221     0.00225100     0.00023654     1.64520761
