# total energy = -19072.98201766 eV

CRYSTAL
PRIMVEC
        7.60600008     0.00000000     0.00000000
        0.00000000     7.60600008     0.00000000
       -1.89786986    -1.89786986     4.85670466
PRIMCOORD
22 1
Ti      3.68157101     7.11187501     0.96102198     0.46563801    -1.78375207     2.75086414
Ti      3.90129302     2.83624602     1.32253799    -0.02305998     1.09574570     1.84484125
Ti     -0.08727202     6.75348998     1.20699600     0.04003903    -1.49536058     3.05855460
Ti      0.02271800     2.70678503     1.47209798    -1.34477873     0.65106038    -3.27236556
Ti      5.95194123     2.87732324     3.82589183    -1.90198455    -1.16881416    -0.32102112
Ti      5.63272823    -1.00065979     3.75216082     1.44302961     3.13154491    -1.84111418
Ti      1.94526822     2.74139221     3.87383682     1.47225150     0.32632453     0.64889757
Ti      1.92045621    -0.78813379     3.60688182    -1.65594660    -0.24596288    -1.36167268
O       3.57745999     4.59622499     0.92314400    -0.23365191     0.53514498    -0.25939201
O       3.11436502     1.22357602     0.55963299     0.41323248    -1.29099843     2.97527937
O       0.02216501     4.90591100     0.87207199     0.11630081    -0.92649891     0.32693980
O      -0.25170099     0.90614503     0.83988298     0.64833193     1.22565973     0.37816519
O      -1.47144180     4.88586323     4.02779083    -1.09324555    -2.54666191     0.64988513
O       5.37081523     0.92083525     4.39364483     1.39667235     0.80812425    -1.13739527
O       2.02153425     4.78290920     4.08407180    -0.32748950     0.60253079    -0.72718409
O       2.42876620     0.83176922     4.34234480     0.96442630     1.21789165    -3.00456039
O       3.67892523     2.95487623     3.29064179     0.66758924    -0.37276047    -0.57473124
O       0.10916223     2.39393824     3.36852980     0.16276863     0.17740747     0.98159150
O       5.55510200    -0.63401102     1.69499400    -1.21931964    -0.53275026    -0.05289095
O       5.76585203     2.78925000     1.79803301    -0.15765188     0.39606419     1.38463135
O       1.90948599     6.82423097     1.68582399    -0.18940938     0.00979668     0.16044075
O      -0.08299679    -0.73634877     3.43708482     0.35625861     0.18626415    -2.60776292
