# total energy = -4986.61970936 eV

CRYSTAL
PRIMVEC
        2.78780518     0.00000000     0.00000000
        0.86496483     4.28157633     0.00000000
       -0.00000576    -0.00005719     4.39029776
PRIMCOORD
6 1
Ti      1.82638208     2.14075958     2.19514898     0.00000000     0.00000000     0.00000000
Ti      0.00000000     0.00000000     0.00000000     0.00000000     0.00000000     0.00000000
O       1.56247033     0.83440506     0.85560443    -3.34039209     1.64059454     1.80066582
O       2.09029383     3.44711409     3.53469354     3.34039209    -1.64059454    -1.80066582
O       0.26390939     1.30633135     3.05075419     3.33948269    -1.63926785     1.79920184
O       0.60104967     2.97518770     1.33954377    -3.33948269     1.63926785    -1.79920184
