# total energy = -39028.43595355 eV

CRYSTAL
PRIMVEC
        5.93200024     0.00000000     0.00000000
        0.00000000     9.29399984     0.00000000
        0.00000000     0.00000000     9.29399984
PRIMCOORD
46 1
Ti      4.41614798     7.22067401     6.91646001     1.49910668    -0.82200590    -1.55173050
Ti      4.47406802     6.77784102     2.37118103    -0.53021952     0.31346696    -1.55154101
Ti      4.39378501     2.22511101     7.02575098    -0.15404128    -0.35658926    -0.61201945
Ti      4.58446302     2.94566998     1.90010098    -0.29631281    -1.96882992     1.49645664
Ti      1.63003802     6.83065799     7.14629301    -1.82762899     0.90043511     0.04328325
Ti      1.45652799     6.90858802     2.30564099     0.41103496     0.49634214    -1.93203485
Ti      1.38745999     2.42053300     6.57218798     0.68264485    -0.03952635     2.19109724
Ti      1.60490803     1.97037498     3.06521498     1.46827991     1.03676714    -1.20765866
Ti      3.02384502     4.76961600     4.78944999    -0.33855939     0.89093926     0.22500581
Ti      2.84472598     4.69739802     9.07552901    -2.14228149     0.08143689    -1.32153543
Ti      3.00194300     8.90044902     4.34080600     0.21134990     1.66235122     1.80414607
Ti      2.95009401     0.36563899     0.02995699     0.27733497    -1.77150745    -0.49073739
Ti      5.92930101     4.56592102     4.65100600     1.03821441     1.83527443     0.77229360
Ti      5.83423501     4.65395998     9.24858802     2.30816141     0.84927734    -2.40212524
Ti      5.81574201     8.96172299     4.66707802    -0.04412735     0.65956097     3.17378866
Ti      5.89686102     0.10528399     9.11463198     0.81144329    -2.41983398     1.45385165
O       4.23397300     5.76452501     5.65323099     1.63094673    -0.45719759    -1.28394923
O       4.22087200     4.69358800     1.16540298     0.29207846     2.35362547     2.09623378
O       4.36112001     0.69462499     5.72616902    -0.11044615     0.85648672    -1.08982984
O       4.51546101     1.31292300     0.69847201    -0.17400307    -0.70897990     0.02334871
O       1.32592499     5.52964498     5.76169698     1.44007413     0.60118996    -0.35584492
O       1.45303098     5.62060801     0.67840799     0.04690388     0.04770709     1.72823628
O       0.97426898     1.34154302     4.74494999     0.96464998    -0.12884445     0.45061454
O       1.67001900     0.66857302     1.15274199    -1.48882818     1.86460507     1.05651450
O       4.42143801     8.36920200     8.23919400    -0.02333380     3.41488675     3.22882931
O       4.48170199     8.02401100     3.76650200     0.53716664     0.93734126     0.72270523
O       4.31332498     3.81335398     8.50108599     1.43681217    -3.35922440    -2.37272903
O       4.64373199     3.96004498     3.56035100    -1.38332395    -0.48637859     1.30041870
O       1.42717300     8.20233702     8.55167200     0.52878613     1.14601695    -0.24475677
O       1.35319201     8.33422799     3.64734800     0.09459863     0.85549813     0.21055132
O       1.22379002     3.42525401     8.55582901     0.78815603     2.57193355     0.22802840
O       1.57930802     3.90472998     3.92784301    -0.59488073    -2.75707593    -0.87724041
O       3.33685098     6.11252298     7.92790300    -2.68862594    -1.07988635     1.35220947
O       3.00931899     5.97093202     3.25687600    -1.44023714    -0.09506940     0.13795259
O       2.77815199     1.60412199     7.91694601     0.43136648    -0.65873590    -0.87153770
O       3.58774301     1.79807000     3.15533799    -2.66135244    -0.71165514    -0.44449736
O       5.89876399     6.08346299     7.93577202    -0.27843643    -0.92187349     0.61382900
O       0.03615699     6.06088200     3.25016799     0.78468812    -1.01867376     0.61958338
O       0.28470202     1.28696802     7.87657402    -0.84208339     1.36134306    -2.65364376
O       2.74587202     7.90618498     5.85280500    -0.01547753    -0.19839359     1.12762944
O       3.01045403     7.85876202     1.68002902     0.31848395    -0.25122310    -0.89329901
O       3.16470702     3.50407702     6.23609301    -1.41509791    -2.07800208    -0.59337766
O       0.09778000     7.98770802     6.21602100     0.87508737     0.10736031    -1.50314511
O       5.83545402     7.88979001     1.59197901     0.06437839    -0.65595782    -1.22895486
O       5.79858899     3.48573600     6.21561401    -0.24990181    -1.53365872    -0.05802879
O       0.45041800     2.96439200     1.90728398    -0.24254716    -0.36472320    -0.51639083
