# total energy = -19070.37963824 eV

CRYSTAL
PRIMVEC
        5.93400000     0.00000000     0.00000000
        0.00000000     9.29699974     0.00000000
        0.00000000     0.00000000     4.64899994
PRIMCOORD
22 1
Ti      4.46096999     7.07963599     2.50361202    -4.34908149    -0.03303740    -0.38082783
Ti      4.44054798     2.37938502     2.08308598     2.20978403    -1.88330497     2.34197683
Ti      1.41475601     6.94375698     2.77639200     2.54254403     1.91283616    -1.46496884
Ti      1.63834700     2.48066701     2.17271299    -1.07125567     0.10485811    -0.24378155
Ti      3.21727401     4.58745499     4.52987400    -1.68692506    -0.74406365    -0.35187797
Ti      2.90586299     0.39636403     0.11036198    -0.32945820    -0.60655843     1.48802316
Ti      0.02420399     4.42205000     4.17872102     1.73795351     1.25369351    -1.50172766
Ti      5.75748399     8.78026800     0.27877798    -0.90982813     5.32202894     1.37806887
O       4.18186698     5.52544902     0.97780399     0.67807806    -0.45550812     1.05297975
O       4.45129800     0.58821502     1.32626699     0.41896013     0.72741549    -0.70344354
O       1.42295800     0.69597201     1.26300999    -0.46887683     1.15647646    -1.18305988
O       4.30035098     8.40143303     3.96301800    -2.07987205     0.39286291    -1.50013769
O       4.48448101     3.75517602     3.40291902    -1.48592669    -0.10869934    -0.34165397
O       0.95126199     8.60457999     3.68625798     4.58603804    -0.48098210    -2.87582906
O       1.61834399     4.22331299     3.17469800     0.18955645    -0.81929544     0.23582244
O       3.00249398     6.16431699     3.42921802    -0.56427174     0.12493895     0.28208946
O       2.97850299     1.76552099     3.27752502     0.17055496    -1.55608440     0.78172261
O       5.79179499     6.23370901     3.61337800     0.13086303    -0.13973694    -0.30026691
O       2.72980302     7.89413699     1.57812398     0.05497509    -1.39485818     0.76509322
O       3.20191602     2.68882602     0.92871100    -2.10637807     2.67106890    -2.74809507
O       5.82877501     7.53206598     1.37451902     2.22186307    -3.81508425     2.84816835
O       0.66307698     3.68685500     0.92265102     0.11070377    -1.62896569     2.42172502
