# total energy = -19517.88204745 eV

CRYSTAL
PRIMVEC
        5.17600016     0.00000000     0.00000000
        0.00000000     5.50899976     0.00000000
        0.00000000     0.00000000     9.26300011
PRIMCOORD
23 1
Ti      1.89576803     3.19608300     3.40864800    -0.75989008     0.80093570    -0.24562426
Ti      3.28372798     2.23525000     5.85003201     0.11845437     0.28191848    -0.11622111
Ti      4.46338198     2.26675298     1.24778900     1.42357047    -1.38114159     0.15038645
Ti      0.69354399     3.33569801     8.04027802     0.12496569    -0.97870029     1.24389683
Ti      1.87745003     0.53636501     1.25248302    -0.54555641     0.00531601    -1.03330515
Ti      3.34178598     5.02200101     8.03355101    -1.36555453     0.66649781     1.39129643
Ti      0.74313499     0.52876301     5.83606898     0.10978975    -0.18596025    -1.22294979
Ti      4.45989898     4.95494203     3.50253902     0.31957564    -0.33837453    -1.49194230
O       1.53602799     1.96586702     4.67779200     0.58858204    -0.84246597     0.99981677
O       3.47751502     3.54204200     4.40702899     0.24009279    -0.24626447     1.66011616
O       0.96287002     1.98293299     0.11989601    -1.21564914     0.86349863    -0.13394990
O       3.51514497     0.85530802     0.17254401     0.29921558    -0.90559995    -1.69175411
O       1.67425702     4.62794700     9.00093502     1.00898250     1.84752497     1.86048848
O       4.26138602     0.77110598     4.64258298    -0.51759154     1.63900020     1.84781088
O       0.92067300     4.64734500     4.51019702     0.19858360     0.97185807     0.95231100
O       0.11772702     3.32648302     2.61174601     0.06110332    -0.15703687    -1.51003464
O       5.04291102     2.27113398     6.76031700    -1.68541171    -1.61773640    -1.44202405
O       2.82911102     2.09550302     2.18211700    -0.86054932     0.23720749    -0.10825557
O       2.28059699     3.20672899     7.18883098     3.33874196     0.31047188    -1.95034625
O       0.14685198     0.61398399     2.04751997     0.00516098    -0.29727003     0.50541402
O       5.05582099     4.89856099     7.07968103    -0.90849450     0.34051806     0.63175833
O       2.51555302     0.63527702     6.71807902    -0.52988785    -0.42957622    -0.51360684
O       2.67724900     4.93524002     2.46861399     0.55176640    -0.58462100     0.21671837
