# total energy = -19070.21489542 eV

CRYSTAL
PRIMVEC
        5.17600016     0.00000000     0.00000000
        0.00000000     5.50899976     0.00000000
        0.00000000     0.00000000     9.26300011
PRIMCOORD
22 1
Ti      1.90086199     3.48210299     3.30762902     2.23256324    -0.09629428    -0.59826147
Ti      3.46036698     2.24461702     6.00571701     0.38810791     1.75081854    -2.76207956
Ti      4.55006401     2.32273802     1.28924602    -1.07321023    -0.74473111     0.95704671
Ti      0.73881002     2.54208702     7.79675298     2.04846061     0.67754018     0.14142950
Ti      1.80915198     0.79506601     1.36794700     1.89848811    -0.35990393    -0.22432318
Ti      2.82888601     5.36382702     8.04847799     0.75930747    -0.02433370     1.41184521
Ti      0.51844998     5.25730301     6.22473702    -0.22848451     0.18783355    -0.10467685
Ti      4.45663798     5.05929599     3.37005198    -0.93603154    -1.57409962    -0.05854970
O       3.81531601     3.42329499     4.43434999    -1.04679136    -0.01087731     0.55553024
O       1.06167001     2.34191699     0.34697099     0.84034173     1.22751890    -0.49976993
O       4.72985500     3.79168898     6.91205000     4.52368106     1.66148039     0.27259514
O       3.68673599     0.91745799     0.16682202    -1.46919574    -0.28628396     0.34065227
O       1.19490202     0.12991402     8.93947198     1.31229283    -2.35371906    -0.45989288
O       4.47647398     0.36629702     5.08429999    -2.12303574     2.10443869    -0.55358777
O       1.27454600     4.64673898     4.69728298     0.58106799    -1.16720799    -1.34333505
O       0.23184298     3.77785899     2.18013100     0.07955922     1.20364234     1.47968944
O       4.55713102     1.50336399     7.27472798     0.46472784    -3.18488606    -0.05082610
O       3.16236901     1.93139700     2.64058998    -2.58374778     0.20612722    -1.41497347
O       2.77952102     3.44243898     7.14938902    -5.77552285     1.72572045     2.18616921
O       0.34812799     1.15256202     2.47239602     0.07990246    -1.32241089     0.67561340
O       1.99169500     0.99270001     6.77804401    -0.19767754     0.25745211    -1.12022466
O       2.78601101     4.71506598     2.10277799     0.22519684     0.12217578     1.16992976
