# total energy = -19071.52270614 eV

CRYSTAL
PRIMVEC
        5.17600016     0.00000000     0.00000000
        0.00000000     5.50899976     0.00000000
        0.00000000     0.00000000     9.26300011
PRIMCOORD
22 1
Ti      1.88027800     3.58947199     3.30217902    -0.12239458     1.93520399    -0.96198272
Ti      3.90734602     2.29103999     6.04262998    -1.50407122    -1.16177756    -0.10158252
Ti      4.28631800     2.37187599     1.70528200     0.32931370    -0.50301107    -0.17624045
Ti      1.48960401     2.53651801     7.91542600    -0.65903929     0.55951236     1.55856038
Ti      1.56356801     0.71298803     1.32197399     0.77012179    -0.18645313    -0.48908545
Ti      3.02302299     5.49652801     7.70071900     2.29061902    -0.01209010     1.19430769
Ti      0.48259700     5.11317698     6.27949898    -0.70573131     1.68768508     1.76143977
Ti      4.43792601     5.01764101     3.58043100    -1.16050332     1.69985335     0.36591157
O       3.52497698     3.45058202     4.14290800     0.35682271    -2.50257648     2.19888229
O       0.26738898     2.15299802     0.38889400     1.65905250    -0.21398271    -1.99107794
O       0.18161702     3.20490597     6.69238498     1.52840235     1.42587058    -1.69535983
O       2.96473401     1.26039099     0.07898299    -0.99743979    -1.18091635    -1.33742460
O       1.36939198     4.86078298     8.03450501    -2.43370920    -0.80237269     1.77272152
O       4.05362299     0.36211700     5.22742201    -0.39367923     0.44565488    -0.71947926
O       0.97974099     4.96938301     4.53338398     1.52644394    -1.88051378    -0.73468323
O       0.12092002     3.93837798     2.29633102     0.82204189    -1.11725195    -0.95720792
O       4.59701601     1.10251000     7.28962300     1.50848478    -1.16456721     1.26272631
O       2.33912601     2.25640603     2.01479999     0.56942911     1.55360766     1.87176251
O       3.06931198     3.43208600     7.40606999     0.27834825     0.07465972    -0.51139826
O       0.09851301     1.00258001     2.56615998    -0.89682965     0.97361722     0.21782883
O       2.11034998     1.21748799     6.67285199    -1.15595196     0.98591173    -1.75269519
O       2.82775600     5.24498598     2.52580201    -1.60973049    -0.61606329    -0.77592323
