# total energy = -19516.78415932 eV

CRYSTAL
PRIMVEC
        7.60600008     0.00000000     0.00000000
        0.00000000     7.60600008     0.00000000
       -1.89786986    -1.89786986     4.85670466
PRIMCOORD
23 1
Ti      3.78573802     6.85428602     1.29180798     1.91836814    -1.18342806    -0.57077277
Ti      3.99930702     2.93430801     1.18938498    -1.05504435     0.91595841     1.82850548
Ti     -0.02073798     6.62269302     1.25362202    -2.60592381    -2.00095612    -0.62076841
Ti     -0.03964501     2.71892599     1.05917102     2.13396808     2.20198664     1.17147294
Ti      5.78123124     2.70643222     3.60717281    -1.43983784     0.36359912     1.76593252
Ti      5.64539223    -1.17084076     3.74988382    -1.29456995    -0.09082168    -2.84288859
Ti      1.93484120     2.89036423     3.57166079     1.58441540     1.34639621     0.98302669
Ti      1.72263621    -0.84417175     3.60707179     1.37538618    -1.87750173     1.22024190
O       4.07261998     4.88386601     0.74892398    -1.20978368    -1.05929490     0.11767635
O       4.18481101     1.02032899     0.94453699    -1.64429616     0.47902446    -1.12840257
O       0.13652800     4.66859400     0.73601300     0.53189279     1.21565171     0.54327173
O      -0.11660299     0.88424301     0.71477897     0.44021493    -1.16543933     1.08263795
O       5.41129824     4.59163724     3.99160183     1.72353476     1.54024795     0.95519860
O       5.47839024     0.87808625     4.09046981     0.85280387    -0.15437475    -1.58447865
O       1.98910420     4.87866520     3.86232483    -1.20625484    -0.59449841     0.89350753
O       1.62936723     0.94987523     4.13377980     0.13425252     1.37554713     0.20626606
O       3.91900522     2.90549124     3.31116979    -1.58164452    -0.88569112    -1.95572603
O       3.83162525    -0.94561879     3.12836080    -1.29454475     0.26886910     0.50856131
O      -0.12983676    -1.16412878     3.28898383     0.43473745     0.27101006    -0.13574196
O       5.67558598     6.73018401     1.56297401     1.67994734    -0.50524278     0.55228576
O       5.86137201     2.77435202     1.68330299    -0.47950732     0.41644893    -0.42748643
O       1.73256399    -0.51377899     1.82560198     1.14363354    -0.33080648    -1.98628412
O       1.85348301     2.81892499     1.72182799    -0.14174651    -0.54668435    -0.57603531
