# total energy = -19518.60824846 eV

CRYSTAL
PRIMVEC
        7.60600008     0.00000000     0.00000000
        0.00000000     7.60600008     0.00000000
       -1.89786986    -1.89786986     4.85670466
PRIMCOORD
23 1
Ti      3.87565798     6.80947100     1.06168498    -0.65649750     0.52725298     2.59199434
Ti      3.59358502     2.91348103     1.34402502     1.80768982    -0.95665179    -1.15600132
Ti     -0.01306301     6.62197800     1.18908298     0.72174621     0.71556450    -0.85015794
Ti      0.06780300     2.74851499     1.13966999    -1.54169111    -0.64131873     0.29989410
Ti      5.60549523     2.78377624     3.75593983     0.69776475     0.75038856    -2.07083282
Ti      5.70631424    -0.99747075     3.53557582    -1.84375136    -0.93027869     1.10448565
Ti      1.99497024     2.86075920     3.83273282    -0.14531109    -0.90957745    -1.40360045
Ti      1.77872725    -0.85919076     3.52952082     2.39418978     0.40978592     0.65869296
O       3.94016802     4.71753099     0.79621300    -0.45396057     0.41869968     1.58668440
O       3.88777101     1.01889799     0.76519602    -0.35226697     0.51254858     0.20722328
O       0.10452298     4.73319802     0.75481901     0.03662615    -0.11948152     0.82823877
O      -0.10546598     0.82564399     0.70989599     0.38548950     0.58422505     0.00383789
O       5.85635023     4.67721123     3.95893879    -0.41327465    -0.38408362     0.43420138
O       5.82068823     0.84117820     4.14437980     0.20925214     0.89211296    -1.79742675
O       2.03642524     4.76549922     4.08390183    -0.73847612    -0.10847128    -1.15323198
O       1.63328225     0.96907621     4.10272979    -0.08360331     0.22593552    -0.54926600
O       3.79401721     2.79519022     3.23986279     0.43837428    -0.16250072     0.57512282
O       3.77629125    -1.07071280     3.11966679     0.54673218     0.36187673     0.22397299
O       0.03188621    -1.20213376     3.19985482    -1.00046443     0.18440370    -0.49262278
O       5.69189199     6.89199202     1.64383700     0.88317324    -0.85962372    -0.49631643
O       5.96627198     2.82735298     1.72536401    -0.76992458    -0.09026092     1.30772552
O       1.86401400     6.93317698     1.61960502     0.07424757    -0.61358680    -0.35959848
O       1.82740198     2.73703402     1.70549600    -0.19606366     0.19304107     0.50698085
