# total energy = -4985.24975666 eV

CRYSTAL
PRIMVEC
        3.10476925     0.00000000     0.00000000
        0.00000000     3.59565397     0.00000000
        0.00000000    -0.00005673     4.32755078
PRIMCOORD
6 1
Ti      1.55238467     1.79779848     2.16377539     0.00000000     0.00000000     0.00000000
Ti      0.00000000     0.00000000     0.00000000     0.00000000     0.00000000     0.00000000
O       1.55238467     0.70072889     0.84337589    -0.00000000    -1.15750773    -1.45588231
O       1.55238467     2.89486802     3.48417484    -0.00000000     1.15750773     1.45588231
O       0.00000000     1.09704666     3.00715225    -0.00000000     1.15665927    -1.45497162
O       0.00000000     2.49855029     1.32039854    -0.00000000    -1.15665927     1.45497162
