# total energy = -19942.84192646 eV

CRYSTAL
PRIMVEC
        6.60684801     0.00000000     0.00000000
        0.00002791     5.19733187     0.00000000
        0.00000000     0.00000000    10.51911982
PRIMCOORD
24 1
Ti      2.39468119     3.07993409     3.90251843     0.38947162    -0.26902645     0.43543139
Ti      4.21219479     2.11739795     6.61660145    -0.38947162     0.26902645    -0.43543139
Ti      5.69799110     2.11739976     1.35699948     0.39069367     0.26873463    -0.43432222
Ti      0.90888489     3.07993252     9.16212052    -0.39069367    -0.26873463     0.43432222
Ti      2.39466736     0.48126828     1.35704166     0.38972488    -0.27867735    -0.43552987
Ti      4.21220863     4.71606394     9.16207834    -0.38972488     0.27867735     0.43552987
Ti      0.90887105     0.48126629     6.61655928    -0.39048387    -0.27848117    -0.43527379
Ti      5.69800493     4.71606593     3.90256060     0.39048387     0.27848117     0.43527379
O       2.09111898     1.83006894     5.36782633     0.89163834     0.90968620    -0.61103678
O       4.51575707     3.36726311     5.15129355    -0.89163834    -0.90968620     0.61103678
O       1.21236338     1.83008990     0.10830025    -0.89199341     0.90963041    -0.61156334
O       5.39451272     3.36724220    10.41081933     0.89199341    -0.90963041     0.61156334
O       4.51574323     0.76859711     0.10826613    -0.89144910    -0.90965047    -0.61065188
O       2.09113281     4.42873493    10.41085346     0.89144910     0.90965047     0.61065188
O       5.39449888     0.76857621     5.36786046     0.89194764    -0.91048145    -0.61174640
O       1.21237710     4.42875589     5.15125942    -0.89194764     0.91048145     0.61174640
O       0.24005906     3.16131185     2.84147669    -1.04806663     0.16892643     0.21827157
O       6.36681698     2.03602019     7.67764319     1.04806663    -0.16892643    -0.21827157
O       3.54349019     2.03597171     2.41811670    -1.04684844    -0.16868757    -0.21751875
O       3.06338586     3.16136039     8.10100301     1.04684844     0.16868757     0.21751875
O       0.24004522     0.56264592     2.41808310    -1.04802729     0.16893877    -0.21750692
O       6.36683082     4.63468618     8.10103661     1.04802729    -0.16893877     0.21750692
O       3.06337202     0.56269440     7.67767673     1.04703407     0.16840115    -0.21873900
O       3.54350403     4.63463765     2.84144310    -1.04703407    -0.16840115     0.21873900
