# total energy = -19917.29147085 eV

CRYSTAL
PRIMVEC
        6.41000933     0.00000000     0.00000000
        1.01763887     6.74586271     0.00000000
        0.00000000     0.00000000    11.50508794
PRIMCOORD
24 1
Ti      2.92637191     3.99759193     4.26830560    -0.15435778    -1.52985580     0.71471706
Ti      4.50127621     2.74827059     7.23678260     0.15435778     1.52985580    -0.71471706
Ti      5.94280633     2.74827287     1.48419249     0.16752826     0.09645137    -0.43842570
Ti      1.48484181     3.99758991    10.02089584    -0.16752826    -0.09645137     0.43842570
Ti      2.41755261     0.62466069     1.48423863    -0.15435778    -1.52985580    -0.71471706
Ti      5.01009552     6.12120203    10.02084971     0.15435778     1.52985580     0.71471706
Ti      0.97602248     0.62465822     7.23673646    -0.16752826    -0.09645137    -0.43842570
Ti      6.45162566     6.12120450     4.26835174     0.16752826     0.09645137     0.43842570
O       2.38713634     2.37533286     5.87095837     1.69149134     1.78902592    -0.39617655
O       5.04051178     4.37052967     5.63412977    -1.69149134    -1.78902592     0.39617655
O       1.53456576     2.37536013     0.11845132    -1.05555394     0.66160474     0.53628527
O       5.89308243     4.37050246    11.38663655     1.05555394    -0.66160474    -0.53628527
O       4.53169247     0.99759823     0.11841400    -1.69149134    -1.78902592    -0.39617655
O       2.89595565     5.74826429    11.38667387     1.69149134     1.78902592     0.39617655
O       5.38426312     0.99757103     5.87099575     1.05555394    -0.66160474     0.53628527
O       2.04338494     5.74829157     5.63409245    -1.05555394     0.66160474    -0.53628527
O       0.85187610     4.10321610     3.10781134     0.48126467     0.82347477     1.14836848
O       6.57577202     2.64264636     8.39727687    -0.48126467    -0.82347477    -1.14836848
O       3.83655152     2.64258362     2.64476936     0.57759905     1.19731845     0.40164529
O       3.59109659     4.10327884     8.86031864    -0.57759905    -1.19731845    -0.40164529
O       0.34305679     0.73028466     2.64473257     0.48126467     0.82347477    -1.14836848
O       7.08459133     6.01557780     8.86035537    -0.48126467    -0.82347477     1.14836848
O       3.08227728     0.73034740     8.39731353    -0.57759905    -1.19731845     0.40164529
O       4.34537083     6.01551505     3.10777461     0.57759905     1.19731845    -0.40164529
