# total energy = -39032.79642971 eV

CRYSTAL
PRIMVEC
        5.93200024     0.00000000     0.00000000
        0.00000000     9.29399984     0.00000000
        0.00000000     0.00000000     9.29399984
PRIMCOORD
46 1
Ti      4.48126399     7.04021298     6.90344902    -0.56853745     0.18652306     2.38362820
Ti      4.32781401     6.85481800     2.40734399    -0.72162305     0.29256491     0.06020523
Ti      4.51488399     2.30039002     6.91594099     0.34353191     0.16085187    -0.70867471
Ti      4.46920599     2.56622301     2.27488098     0.05285213    -0.48747311    -0.17990787
Ti      1.49737799     6.97264302     6.95678898     0.81338139    -1.43526822     1.52407261
Ti      1.38206699     7.03394402     2.31027500     0.72204780    -0.93885692    -0.31746322
Ti      1.57267499     2.15683699     6.93244000    -0.06856980     1.59523846    -0.29367460
Ti      1.60531502     2.32843800     2.27374801     0.44982572    -0.09206250     1.34075161
Ti      2.80499900     4.63217602     4.82984399    -1.61051031    -1.43339620    -1.66440579
Ti      2.97506001     4.70931398     9.24298699    -0.10140023     0.14063091    -2.24561853
Ti      3.01795802     0.01096201     4.55112702     0.94894362     0.47915765     0.57179941
Ti      3.07429699     9.14914201     9.26675398    -0.25499928     1.31143948     0.57379433
Ti      5.65582999     4.83897902     4.68494002     1.55828655    -2.17680113     0.25952956
Ti      0.04278398     4.72121502     0.11457502    -0.52216502    -0.34675813    -1.93325098
Ti      0.08823401     9.00717402     4.73179999    -1.10652068     1.39280541    -0.04206995
Ti      0.06526798     0.07102400     9.27492199    -0.37152274     0.68505167     0.85700762
O       4.33023902     5.72485402     5.70394400    -0.43631431    -2.87594347    -2.15536121
O       4.48941601     5.68567299     0.84988602     0.00643213    -1.00655846     0.69999312
O       4.48441201     0.67099400     5.66363102     0.36814766     0.33016988    -0.85419972
O       4.30839501     1.28107600     0.84355299     0.31966640    -1.63960724    -0.41746632
O       1.36617500     5.50728401     5.70293603     0.32437718    -0.14014086    -0.55188596
O       1.43586399     5.69315202     0.77270600     0.49566799    -0.48496526     1.00947281
O       1.51595598     0.46178002     5.71308401     0.08521410     2.40597470    -0.93146088
O       1.40971100     0.97102898     0.83363599     0.97661693     0.78250757     1.23904901
O       4.55110898     8.41457599     8.24895499    -0.67420778     1.27221883     1.81664832
O       4.59256197     8.25128602     3.72207000    -1.32150021     0.96164513     0.55233179
O       4.44551499     3.85665999     8.43240101    -0.13785078    -1.43879012    -0.23802253
O       4.24267098     3.95014899     3.72199698     1.41325597    -0.54678926    -0.29861215
O       1.45099000     8.35717301     8.66837998     0.47688222    -0.95465507    -2.10779244
O       1.48956702     8.40485098     3.59761302     0.46937074     0.94584390     0.89097191
O       1.52787702     3.82267602     8.02474402     0.46625790    -0.05752511     2.48568252
O       1.48582399     3.60647203     3.73808698     0.19442047     0.71971529     0.55682659
O       2.97655297     6.12591598     8.05433900     0.03511871     0.97033264    -1.35254886
O       2.85127899     6.00799899     3.31218200     0.22512382     0.64602385    -0.40493193
O       2.91522101     1.34841401     7.80203798     0.71793892    -0.50201811     0.94333219
O       3.23711599     1.51589703     3.21994699    -0.87630530    -0.75588893     0.42782735
O       5.92425600     6.06309200     7.80724000    -0.33379436     0.39865304     0.75365875
O       5.79770998     6.01169000     3.28582601     1.46721753     0.09414329    -0.28351565
O       0.09502499     1.47454098     7.83731600    -1.29270615    -0.93422431     0.72261061
O       2.88198598     7.85471900     6.03445398     0.61780881    -0.62476827     0.22742727
O       2.96663000     7.84042899     1.49791299     0.20862170     0.91090594    -0.94956891
O       2.96027299     2.91280601     5.78023797     0.38417386     0.95501888     1.03654114
O       0.07150201     7.73294600     5.97574399    -0.39379288    -0.31429305     0.38707201
O       0.02183798     7.93208598     1.60519098    -1.42795574     0.58959660    -1.65597977
O       5.79273899     3.15537102     5.91133402    -0.35230323    -0.01215130     0.15719936
O       0.23524400     3.31565399     1.63676799    -1.56860234     0.97192261    -1.89102137
