# total energy = -19960.61138581 eV

CRYSTAL
PRIMVEC
        5.93400000     0.00000000     0.00000000
        0.00000000     9.29699974     0.00000000
        0.00000000     0.00000000     4.64899994
PRIMCOORD
24 1
Ti      4.46009102     6.86554098     2.29841402    -0.74916035     1.17306445     0.43822233
Ti      4.43464601     2.31902802     2.33919602     0.19889701    -0.26769385     0.91676137
Ti      1.48160100     7.01147802     2.35503302     1.09811085     0.58729572    -0.06790337
Ti      1.44940500     2.40723101     2.31590402    -0.12930468    -1.30019784     0.30575699
Ti      2.95769299     4.67146500     0.03676501     0.03122632    -0.44085925    -0.29555742
Ti      3.01198901     0.00143000     4.61799402    -0.26366596    -0.70201401    -0.41028651
Ti      0.02353198     4.65693501     0.01432800    -0.32316233    -0.22083779    -0.15714331
Ti      5.92714700     9.24710002     0.09650500     0.30926912     0.17196907    -1.00689965
O       4.34628500     5.59714101     0.81956602     1.00561564    -0.43807655     0.28355370
O       4.41822998     0.89419297     0.75789602     0.56394135     0.60968463     1.03136962
O       1.52069598     5.60189498     0.91576298    -0.41086449    -0.12336132    -0.21793398
O       1.45818702     0.92855399     0.98118802     0.10977792    -0.52278723    -1.03157505
O       4.47761198     8.35472498     3.59342802    -0.11680809     0.74950693     1.42223247
O       4.48783298     3.68364602     3.64990801    -0.36453371     0.74510906     1.14032838
O       1.44367401     8.35492702     3.72889999    -0.14775313     0.04523703    -0.18010507
O       1.42800502     3.71282702     3.86710399     0.55968797    -0.19823007    -0.92817578
O       2.98363299     6.19821101     3.25222199    -1.15354283    -1.23083639     0.04738596
O       3.01760099     1.39837401     3.25986998    -0.30551967     0.68989563    -0.92543062
O       5.84124402     5.90972199     3.23203001     1.11181098     1.24996849    -0.88475266
O       5.91577498     1.39849201     3.13042301     0.50468434     0.28146005     0.16106450
O       3.02956098     7.85998802     1.34520498    -1.25399227    -0.04699156     0.32354543
O       3.05487697     3.27643301     1.36203800    -0.68797578    -0.28447339     0.37428745
O       5.83264102     7.88240899     1.38957199     1.17989228    -0.43284152     0.14481255
O       0.10682300     3.34988901     1.50005801    -0.76663023    -0.09398980    -0.48355809
