# total energy = -39037.07890154 eV

CRYSTAL
PRIMVEC
        7.60600008     0.00000000     0.00000000
        0.00000000     7.60600008     0.00000000
       -3.79573973    -3.79573973     9.71340985
PRIMCOORD
46 1
Ti      1.94397946     4.92032944     6.13800164    -0.23051285    -1.05775403    -0.07378683
Ti      3.80811602     6.82120397     1.28333701    -0.57373597     1.20384803    -0.84250145
Ti      1.89089647     0.82669546     6.09291765     0.32877814    -0.09658070    -0.26111028
Ti      3.72205301     2.87462402     1.29784298     0.39307091    -0.51296921    -0.56700225
Ti     -1.89338456     4.60985744     6.14303063     0.52494387     0.42352487    -0.55738760
Ti     -0.15154298     6.63007399     1.22378700     1.97834609     0.62209767    -0.39762228
Ti     -1.91420255     0.76549447     6.07054964     0.41179575    -0.05721581    -1.57049416
Ti     -0.14725098     2.90923501     1.07951799    -0.34769812    -0.69640566     0.69771255
Ti      3.91199346     1.02619444     8.43532265    -0.75520758    -0.02791705    -0.17684825
Ti      5.69479897     2.87626499     3.63832601    -0.34644600    -0.88978329     1.12662954
Ti      3.92209646    -2.80859958     8.51761162    -0.76121780    -0.24119759     0.00557055
Ti      5.65259899    -1.02742599     3.59108101     0.24428137     0.99598686     1.59177519
Ti      0.02725644     0.96870642     8.38557364     0.85430925     0.52603839     1.13345916
Ti      1.74970098     2.76138501     3.52961998    -0.02876114    -0.45643192     0.44948068
Ti      0.08891046    -2.74693254     8.51309260     0.17705163     0.06411434     0.84116859
Ti      1.85272999    -1.01181802     3.55997999     0.22471990     0.80011372     1.33467686
O       2.03595946    -0.97598954     5.71575064     0.09316550     0.38532803    -1.06890748
O       4.01305700     1.11070701     0.89822001    -0.70501526    -2.12737063    -1.09482961
O      -1.71740153     2.78409846     5.70448562    -0.26388476     0.34220290    -0.32196934
O       0.08029799     4.74021200     0.90971898     0.18166599     0.92045167    -1.13511753
O      -2.01905156    -1.11099954     5.71665463     0.09461072     1.96032496    -0.56134762
O      -0.19301698     0.94354098     0.73013998     0.48634363    -0.07703234    -0.11344868
O       3.88113444     2.87764943     8.89871264     0.13041720    -0.58988250     0.06144605
O       5.73628398     4.80219501     4.06001402    -0.50912181    -1.32716358    -0.08647343
O       3.76878947    -0.88510753     8.83578764     0.30615319    -0.00374147     0.27703313
O       5.80364401     0.95865200     4.07612901    -0.23548254    -1.03783492     0.59330644
O       0.04462748     2.89846747     9.05625664    -0.28293484    -0.56314148    -0.49341133
O       1.99895198     4.53136898     4.18457399    -0.42353258     0.57671125    -0.26345641
O       0.04296443    -0.80911053     9.01883264    -0.15186535     0.05920919    -0.18382932
O       1.71519502     0.91932498     4.00846502     0.16121568     0.45081302     0.76900361
O       1.92056046     1.01011544     8.00966162     0.93321463     0.53953514     0.26947048
O       3.89338600     2.64790898     3.15900398    -1.49265578     0.85778718     0.68957861
O       1.91549247    -2.76976553     8.06867261     0.77181666    -0.20215743     0.27092701
O       3.78292898    -0.73812500     3.24189800     0.61115299    -0.89455243     0.36373076
O      -1.82026353     0.87296646     8.11999460    -1.72672678     0.48911039    -0.47938056
O      -0.15548598     2.93818000     3.24345902     1.76062422    -0.10608273    -0.79860679
O      -1.79067554    -2.69226456     8.10532163    -1.40012534    -0.50558371     0.23690205
O      -0.04997899    -0.89992899     3.19194002     0.19436904    -0.59473983    -0.10491930
O       3.83579845     4.57998444     6.41411464    -0.28730032    -0.26750744     1.10415578
O       5.70028998     6.48631198     1.56563699    -1.44271157    -0.20611102     0.48413428
O       3.82327044     0.94870448     6.33217064     0.08026627     0.49446009     1.23021238
O       5.64627898     2.89812102     1.39531102     0.49535792     1.07563272     1.09259995
O       0.01391546     4.90738947     6.49005565     0.88707154    -0.73710110     0.19954725
O       1.94924001     6.79857202     1.72640702    -0.76917742    -0.70338338    -1.30437100
O       0.03801144     0.63132947     6.52433961    -0.38881471     0.63899188    -0.96140551
O       1.77170702     2.65222601     1.71509501     0.79818616     0.55335946    -1.40429439
