# total energy = -19938.01790798 eV

CRYSTAL
PRIMVEC
        5.78261607     0.00000000     0.00000000
        2.63607923     5.56132767     0.00000000
        0.00000000     0.00000000    10.63559754
PRIMCOORD
24 1
Ti      3.65805825     3.29563759     3.94573080     1.13874535    -3.23912016     0.87832259
Ti      4.76063686     2.26569000     6.68986679    -1.13874535     3.23912016    -0.87832259
Ti      6.06107472     2.26569188     1.37202551    -2.75346996    -0.71484973     0.81057657
Ti      2.35762049     3.29563593     9.26357225     2.75346996     0.71484973    -0.81057657
Ti      2.34001877     0.51497385     1.37206814     1.13874535    -3.23912016    -0.87832259
Ti      6.07867637     5.04635391     9.26352963    -1.13874535     3.23912016     0.87832259
Ti      1.03958087     0.51497180     6.68982416     2.75346996     0.71484973     0.81057657
Ti      7.37911433     5.04635595     3.94577349    -2.75346996    -0.71484973    -0.81057657
O       2.75844275     1.95823799     5.42726402     1.48076288     2.01172133    -1.09199703
O       5.66025236     3.60308960     5.20833363    -1.48076288    -2.01172133     1.09199703
O       1.98932627     1.95826045     0.10949945     0.53152924    -1.05075523     1.25562543
O       6.42936892     3.60306724    10.52609791    -0.53152924     1.05075523    -1.25562543
O       4.34221286     0.82242575     0.10946490    -1.48076288    -2.01172133    -1.09199703
O       4.07648226     4.73890190    10.52613240     1.48076288     2.01172133     1.09199703
O       5.11132940     0.82240333     5.42729851    -0.53152924     1.05075523     1.25562543
O       3.30736566     4.73892434     5.20829908     0.53152924    -1.05075523    -1.25562543
O       1.81350859     3.38271478     2.87294024     0.62166161     2.10626366     1.98733467
O       6.60518646     2.17861283     7.76265741    -0.62166161    -2.10626366    -1.98733467
O       4.13405707     2.17856107     2.44489239     1.22473799     1.32927111     0.66214107
O       4.28463803     3.38276652     8.19070503    -1.22473799    -1.32927111    -0.66214107
O       0.49546908     0.60205086     2.44485842     0.62166161     2.10626366    -1.98733467
O       7.92322597     4.95927674     8.19073901    -0.62166161    -2.10626366     1.98733467
O       2.96659852     0.60210260     7.76269127    -1.22473799    -1.32927111     0.66214107
O       5.45209659     4.95922499     2.87290626     1.22473799     1.32927111    -0.66214107
