# total energy = -18970.70904789 eV

CRYSTAL
PRIMVEC
        7.60600008     0.00000000     0.00000000
        0.00000000     7.60600008     0.00000000
       -1.89786986    -1.89786986     4.85670466
PRIMCOORD
22 1
Ti      6.18218598     5.13293402     0.99312102    -8.80769381    17.69325634     0.01081664
Ti      6.05107724     1.96787922     2.53129879    -2.84042779    -1.64088045   -16.03892028
Ti     -1.29191476     4.22916722     3.91875884     3.80270695    18.45885196    -6.76229359
Ti      0.34582501     3.31084202     1.15160701    -2.29106974   -17.48391730    12.63762002
Ti     -1.46783376     2.75773723     4.84636279    44.97355340    75.38362877    65.82495992
Ti      5.09823423     2.23793922     4.23720379   -90.69024948   -40.35165386   -45.68402892
Ti     -0.57214676     1.84884424     4.24460280    55.16131152   -31.11077605   -21.85963003
Ti     -0.89383477    -0.07377477     3.65411883     1.54349705   -11.46037880   -11.03978885
O       4.10869701     6.49764098     0.38532698     0.12912599    -0.93992239     1.13252457
O       5.63734398     6.61435700     1.88537001    -2.59033854     1.14262849    -0.50927248
O      -0.04795801     5.46359799     1.93256998     3.15629821    -0.00131101    -1.43319797
O      -0.52377779     5.99631221     4.06732180     0.08786697    -6.84550223     2.12900071
O       5.78341097     4.00104701     2.09465300    -7.23797819    -3.96755201    10.00270084
O      -0.22304599     0.75319999     2.07044399    -1.62127346     2.72264525    -1.04985971
O       0.47152021     3.81075323     4.58090483     1.84733419    -0.05001646     3.18070467
O       1.77182000     3.76549402     1.57084700     9.31772271     1.79147670     0.27733652
O       3.98981321     1.91531922     2.87731282     0.80964017    -1.17452304    -3.29228082
O       0.25275321     3.21098924     2.77899280    -3.58679360    -2.78687349     6.96161123
O       4.33483720     4.07241725     4.12706681     1.33532992     1.23460409    -0.26359808
O       5.92119502     3.29718898     0.98906599    -2.44614820    -6.31533439    -4.78529141
O       0.58612524     0.39586925     4.12976181     7.62117966     2.08267764     3.86248384
O       5.43250624    -0.04766876     4.59360583    -7.67359367     3.61887224     6.69840319
