# total energy = -19940.71559082 eV

CRYSTAL
PRIMVEC
        4.79875178     0.00000000     0.00000000
        1.25721181     4.95016835     0.00000000
        0.00000000     0.00000000     8.65765787
PRIMCOORD
24 1
Ti      2.48433932     2.93346533     3.21192948     2.83903810    -1.34879196     0.63198999
Ti      3.57162441     2.01670335     5.44572887    -2.83903810     1.34879196    -0.63198999
Ti      4.65080323     2.01670506     1.11686513    -4.92681938     0.10893280     2.30026221
Ti      1.40516053     2.93346381     7.54079332     4.92681938    -0.10893280    -2.30026221
Ti      1.85573352     0.45838119     1.11689984     2.83926745    -1.34783731    -0.64004372
Ti      4.20023024     4.49178768     7.54075861    -2.83926745     1.34783731     0.64004372
Ti      0.77655462     0.45837929     5.44569416     4.92708729    -0.10833141     2.31343732
Ti      5.27940912     4.49178953     3.21196419    -4.92708729     0.10833141    -2.31343732
O       1.96152090     1.74303854     4.41793675    -1.84505311    -0.90176669    -0.86800089
O       4.09444279     3.20713015     4.23972161     1.84505311     0.90176669     0.86800089
O       1.32325947     1.74305851     0.08913546     1.74855957    -1.19737039    -0.59296989
O       4.73270432     3.20711025     8.56852265    -1.74855957     1.19737039     0.59296989
O       3.46583696     0.73204586     0.08910737     1.84504771     0.90166744    -0.86797904
O       2.59012677     4.21812281     8.56855074    -1.84504771    -0.90166744     0.86797904
O       4.10409849     0.73202592     4.41796484    -1.74840608     1.19751025    -0.59286396
O       1.95186519     4.21814281     4.23969352     1.74840608    -1.19751025     0.59286396
O       0.93905724     3.01097311     2.33864952    -0.77401315    -1.93885110    -2.45267469
O       5.11690644     1.93919557     6.31900884     0.77401315     1.93885110     2.45267469
O       3.06622784     1.93914941     1.99020722     1.21194083    -2.58726967    -2.50874790
O       2.98973590     3.01101932     6.66745099    -1.21194083     2.58726967     2.50874790
O       0.31045142     0.53588883     1.99017956    -0.77426229    -1.93947279     2.45225508
O       5.74551232     4.41427990     6.66747864     0.77426229     1.93947279    -2.45225508
O       2.36113007     0.53593499     6.31903644    -1.21180302     2.58748436    -2.50769940
O       3.69483366     4.41423369     2.33862186     1.21180302    -2.58748436     2.50769940
