# total energy = -19516.43171106 eV

CRYSTAL
PRIMVEC
        5.17600016     0.00000000     0.00000000
        0.00000000     5.50899976     0.00000000
        0.00000000     0.00000000     9.26300011
PRIMCOORD
23 1
Ti      1.89808498     3.16790500     3.34392200    -1.05276223     0.35411226     1.32693346
Ti      3.28199599     2.21896001     5.88215899     0.68362547     0.38975727    -0.96486570
Ti      4.47956300     2.26320098     1.32755898     1.20720794    -1.41812436    -2.14022897
Ti      0.69016302     3.39463798     8.00104900    -0.34483905    -1.52917317     1.95275049
Ti      1.87129898     0.56325801     1.31648198    -0.36499600     0.49935161    -2.74588674
Ti      3.36550402     5.05887000     7.97499803    -1.06251289     0.73227565     2.89199308
Ti      0.77360401     0.56121099     5.83705500    -0.55996334     0.13143330    -1.91842702
Ti      4.45246097     4.89292901     3.50172499     0.32601857     1.30482865     0.51560022
O       1.49034300     1.93827001     4.70380599     1.19117840    -0.11196284     0.02634765
O       3.41331799     3.50720700     4.36428999     0.63793207     0.45966174     1.71430244
O       0.92754897     2.04314098     0.15118800    -1.02473514     0.81692385    -0.01211067
O       3.48557698     0.87114900     0.19035400     0.13211593    -0.89669107    -1.81892735
O       1.75219499     4.64714100     8.89712399     0.44885024     1.67085875     2.27740895
O       4.28484800     0.81713900     4.68654502    -0.35817332    -0.20490183     0.39233378
O       0.89912501     4.63183000     4.51405498    -0.02273833     0.87773355     0.51804560
O       0.05680199     3.27905000     2.67645999     0.58109241     0.65820471    -1.11005440
O       5.04140901     2.29631102     6.70293498    -1.51678508    -1.47014319    -0.69141283
O       2.85745602     1.99757099     2.23327098    -1.54882952     0.59104567     0.37301784
O       2.23486502     3.10129598     7.19921698     3.83805063     0.22069921    -2.19499246
O       0.06705300     0.68542202     1.99214602     0.75186412    -1.86747519     1.48966044
O       5.09080400     4.88015801     7.05703197    -1.00562772     0.63640586     0.58397256
O       2.64291000     0.63351100     6.70468698    -1.65445536    -0.65282802    -0.80135325
O       2.60793800     4.91127898     2.47419803     0.71848193    -1.19199215     0.33589264
