# total energy = -19073.39206088 eV

CRYSTAL
PRIMVEC
        5.17600016     0.00000000     0.00000000
        0.00000000     5.50899976     0.00000000
        0.00000000     0.00000000     9.26300011
PRIMCOORD
22 1
Ti      1.80798800     3.27681201     3.16030999     0.11217239    -0.13253245     1.96917882
Ti      3.48991100     2.25256901     6.01671898     0.79700037    -0.22207886    -0.11830756
Ti      4.51835502     2.17043398     1.27229700    -1.33673503    -1.04234746    -1.60147956
Ti      0.67413297     3.33354600     8.06143299     1.11762631     1.42954803     1.72891608
Ti      1.83175499     0.55474302     1.33068001    -0.56320396    -1.21566199    -2.92919130
Ti      3.27049601     5.01077298     7.98675502    -0.27819372     0.69466425     2.09675238
Ti      0.62621100     0.48244201     5.94454402     0.83450403     0.08386582    -1.00839140
Ti      4.41944698     4.84775601     3.49304600    -0.53300531     1.25202692     0.91234987
O       3.31560800     3.45727002     4.60522598    -0.85256141     0.06091306    -0.35282619
O       0.82703800     2.10310602     0.22950301     0.97643824    -1.36634103    -0.21158876
O       4.46250899     3.97648202     9.12488500    -0.99171085    -0.65995178    -0.29105259
O       3.35185702     0.92429602     0.09118798     0.73350129     0.75653659    -0.28215836
O       1.59159599     4.86355999     9.11521598    -0.01291260     0.12645590    -0.90366982
O       4.63535802     1.03768600     4.62086502    -1.76776366    -0.00514606     0.52906561
O       0.83018200     4.72178902     4.34225299     1.70553626    -1.28538365     1.38865333
O       0.00561002     3.34717099     2.54784098     0.38090419    -0.28858587     0.04556459
O       0.27215798     2.47420300     6.45585900    -0.90995720    -1.40444325     0.07234547
O       2.76977400     1.89280701     2.23291299    -0.45699010     0.37090259     1.71254920
O       2.57486198     3.32552701     7.54847799     0.12262470    -1.30892005    -2.25100422
O       5.15198297     0.50528601     2.13310699     0.73634828     0.65416216    -0.78046380
O       2.57203401     0.43917002     6.36822798    -0.70240790     1.39935555     0.27812199
O       2.61347102     4.46324698     2.19688798     0.88878544     2.10296185    -0.00336403
