# total energy = -4986.42861597 eV

CRYSTAL
PRIMVEC
        3.92019339     0.00000000     0.00000000
        1.84479010     3.45899779     0.00000000
       -2.88252858    -1.72952100     5.17724055
PRIMCOORD
6 1
Ti      1.38350008     2.59438156     1.29430979     0.00046614    -0.00046614     0.00000000
Ti      1.49895469    -0.86490489     3.88293012    -0.00046614     0.00046614     0.00000000
O       0.46123815     0.86474504     0.84333007    -0.00016815    -0.00027408    -2.64572784
O       2.42121646     0.86473161     4.33390990     0.00016815     0.00027408     2.64572784
O      -0.46120089    -0.86472265     3.43195035    -0.00027408    -0.00016815    -2.64572784
O       3.34365542     2.59419921     1.74528957     0.00027408     0.00016815     2.64572784
