# total energy = -39034.14495724 eV

CRYSTAL
PRIMVEC
        7.60600008     0.00000000     0.00000000
        0.00000000     7.60600008     0.00000000
       -3.79573973    -3.79573973     9.71340985
PRIMCOORD
46 1
Ti      1.97609147     4.83323644     6.25830363     0.14273562    -0.48729879     1.78616634
Ti      3.84639099     6.99951999     1.31039702     2.93538406    -3.12947722    -0.84224254
Ti      1.92021247     0.69707143     5.98383760    -0.47033413     1.80721417     2.04669272
Ti      3.68850101     2.79462199     1.29061098     0.65091306     0.72627341    -0.95600696
Ti     -1.82045653     4.54917547     6.08444663    -0.51111184     1.06629241     0.30461336
Ti      0.12429998     6.42516698     1.16883200    -1.40561413     0.80654431     0.88750863
Ti     -1.93140055     0.89731644     5.85539961    -0.19582120    -0.73926057     1.06159552
Ti     -0.13781702     2.79371599     1.13002600    -0.49438578     0.27577868    -0.78995117
Ti      3.74503947     1.07235944     8.37948561    -1.07535298    -1.02306521     0.08012769
Ti      5.61722900     2.76270001     3.56501400     0.64323549    -1.09494043    -0.65261307
Ti      3.95911045    -2.81571553     8.63579261    -0.81995621     1.65285279    -1.97664273
Ti      5.72548998    -1.11930900     3.74433900     1.22601429     0.45556005    -1.06246687
Ti     -0.08069154     1.06808443     8.26431061     0.82723758     0.86067685     2.26197898
Ti      1.81835199     2.87920701     3.58854599    -0.60521683    -1.39269151    -1.53650313
Ti      0.03874546    -2.57408854     8.53817163     0.60202351    -1.61775748     0.07023279
Ti      2.01887799    -0.96409602     3.60288198    -1.54604527    -0.10753489     1.75295205
O       1.82098544    -1.03262553     5.89235460     0.33163798    -0.51888635    -1.50562957
O       3.78641901     1.03659902     0.88531100     0.10031857     2.82825412    -1.62493034
O      -1.58505853     2.68001845     5.56320762    -0.87212931     1.40734680    -0.01502013
O       0.27089001     4.63535500     0.59021001    -0.08660173     1.41592889     0.82061082
O      -1.75845357    -1.05908355     5.72498563    -0.49633519     0.08170455    -1.07334495
O       0.05385400     0.90618598     0.70355899     0.19362059     0.30720478     3.21725112
O       3.66093945     2.89491743     8.95506160     0.30644450    -1.24916862    -0.22699070
O       5.39458000     4.47702099     4.11864401    -0.25427423     2.67788438     0.54785498
O       3.32222642    -0.98753153     8.87774965     1.96438525     0.11894930     0.41302139
O       5.83230701     0.82946100     3.88709102    -0.13657936    -0.12155897     1.18589401
O       0.06646445     2.88831145     9.00871260    -0.45810133    -1.32188510     0.42417047
O       1.97911498     4.50734301     4.35966498     0.26070713     0.24788658    -1.03820130
O       0.14308545    -0.76883057     8.91931663    -0.95355464     1.22611713     0.72343954
O       1.61618199     1.07236399     4.20852402    -0.05790615     0.23614871    -1.00371148
O       1.84779843     0.87431845     8.04214861     0.46543746     1.19154658    -0.50252616
O       3.76060098     2.35824899     3.07031001    -0.51153993     1.19613883     1.83695979
O       1.84883445    -2.84270754     8.20932062     0.71824616    -0.56607588    -0.81908641
O       3.81737599    -0.61659601     3.35476400    -0.13955310    -1.17805985    -0.02559277
O      -2.04839555     1.11756943     7.93103763     0.73296470    -0.63002669    -0.06336666
O      -0.19396701     2.89397899     3.08249997     1.43248474     0.02651143     0.65765527
O      -1.78963354    -2.48413153     8.28464562    -1.57001516    -1.10636384    -0.49432408
O       0.00180698    -1.16006200     3.34753401     0.83493649    -0.30282259    -0.97389284
O       3.90200244     4.87010047     6.67509464    -0.17971221    -1.31840331    -1.33609251
O       5.72235800     6.54645102     1.66730803     0.52456643    -0.57287002     0.17390665
O       3.69250847     1.22063544     6.33223361     0.61425246    -0.36244186    -0.55530064
O       5.62848402     3.13459499     1.47509799    -1.27421837    -0.16774500     0.78356198
O      -0.01173853     4.68463543     6.53906661     0.62244117    -0.33971124    -0.03593709
O       2.10839700     6.75041699     1.50161998    -3.55150571    -1.21903039     1.22539156
O      -0.03937253     1.01043343     6.51897460     0.40325531    -0.30338720    -2.53948185
O       1.77047901     2.90752101     1.68756001     1.13262278     0.25764854    -0.61172943
