# total energy = -39033.42850758 eV

CRYSTAL
PRIMVEC
        5.93200024     0.00000000     0.00000000
        0.00000000     9.29399984     0.00000000
        0.00000000     0.00000000     9.29399984
PRIMCOORD
46 1
Ti      4.48221799     6.85494802     6.89758097    -0.87012180     0.80979804     1.95585690
Ti      4.45519798     6.90562098     2.36090398     1.69905990     0.79614573     0.07750722
Ti      4.48674002     2.45584600     6.90692000    -1.29873694    -0.00791669    -0.92625568
Ti      4.31343902     2.42471201     2.03157798     0.38456981    -1.25857526     0.09527483
Ti      1.45976598     7.02462601     6.91871197     0.64304857    -1.50367990    -0.27255683
Ti      1.56571102     7.07036502     2.27470598    -1.32440401    -0.27084731     0.33006729
Ti      1.46669000     2.32115002     7.22137501     0.59636606    -1.60354133    -2.77209889
Ti      1.20488299     2.16153799     2.59438598     1.73771337     0.55973091    -0.89283879
Ti      3.13772401     4.64393000     4.57299797    -1.56834780    -1.61271117     0.83185683
Ti      2.88247198     4.80116402     9.12597299     1.60852876     0.15454933     0.40259042
Ti      2.93813301     9.14616602     4.70879502     1.57417135     1.13847745    -0.07580078
Ti      2.88926101     0.02315801     9.25413999     1.86692164     1.28246030     1.28550629
Ti      0.07698000     4.66968099     4.69567200     1.88852637    -0.55572230    -1.04744056
Ti      5.93161601     4.69595702     9.29369202    -1.30489704    -0.23010559     0.09502312
Ti      0.05212698     9.19815002     4.91697398    -1.37645807     1.48417088    -1.38034712
Ti      0.00065401     9.12533502     9.11719098    -1.88636381     1.10316564     1.87518876
O       4.63079799     5.49361801     5.66571698    -1.03504296     0.45960671    -0.70993353
O       4.53695402     5.72867299     0.75142699    -0.84125190    -0.82918905     1.12489867
O       4.28166499     0.95395799     5.55793500     1.70999610    -0.14156628    -0.61960061
O       4.50375598     0.73008902     1.04946602    -0.57296515     1.49736733    -0.56482812
O       1.61742503     5.67521598     5.59520702    -0.72994803    -0.48814211    -0.91177651
O       1.41456001     5.57980299     0.87580100     1.17751555    -0.58452509     0.11485765
O       1.63037701     0.84767898     5.66469302    -1.91568494     0.44967454    -0.89337538
O       1.31035998     0.85927500     0.85069900     0.83383889    -0.15306708     0.23053188
O       4.24300399     8.26859303     8.39901500     0.98947091     0.19534015     0.16449821
O       4.51705002     8.46026198     3.74961003     0.09351286    -0.31892695     0.08412061
O       4.44707802     4.00670301     8.18142298     0.39140046    -1.21825624     1.25872747
O       4.56754099     3.58850598     3.82783200    -0.02947462     0.86082366    -0.91641993
O       1.53647398     8.48399801     8.32168998    -0.20305578    -1.04619666    -0.85433522
O       1.42566299     8.19335900     3.93126901    -0.09714891     1.33757038    -0.53536533
O       1.56067902     3.59252598     8.40801398    -0.39681675     2.18532974     2.16982084
O       1.55381199     3.74430000     3.64642300    -0.29539981     0.09934566     0.55313577
O       2.92208899     5.97876999     7.80238999    -0.27982663     1.18504991    -0.36747326
O       3.00254002     5.96750401     3.16682701     0.81235706     0.40215282    -0.11336692
O       3.05990897     1.52425602     7.86194698    -0.85369861    -0.59644165     1.03582997
O       2.96965700     1.66041898     3.01846201    -0.77157780    -1.08581506     0.30353427
O       0.08491998     6.17032897     7.91269100    -0.29856509    -0.52350122     0.11579019
O       0.00949497     6.15196600     3.29090998    -0.68788322    -0.99797381    -0.02932936
O       5.62356701     1.31157502     7.92453198     2.17124883     0.84975737    -0.66177880
O       2.89324100     7.94671101     6.10989699     1.76484495    -0.70354639    -0.18038481
O       2.97492999     7.97121600     1.44788600    -0.10020930    -0.79668078     0.59824631
O       2.98438099     3.37581298     6.11404701    -0.58070366    -0.54797196    -0.33459141
O       5.87896398     8.03365399     6.24782899    -0.40012705    -0.69802391     0.31308540
O       0.17396702     7.82572501     1.42821098    -1.25231822     0.46292035    -0.66382026
O       0.10970897     3.27295600     6.06632601     0.35861632    -0.74596704     0.59591560
O       0.14946902     3.04789501     1.35202898    -1.33067931     1.20545368     0.11185383
