# total energy = -19519.05280648 eV

CRYSTAL
PRIMVEC
        7.60600008     0.00000000     0.00000000
        0.00000000     7.60600008     0.00000000
       -1.89786986    -1.89786986     4.85670466
PRIMCOORD
23 1
Ti      3.80789398     6.68309998     1.24578998     0.81509400     0.35408012    -0.32629085
Ti      3.76151302     2.93204102     1.18005998     0.71582547    -0.42681768     1.14384283
Ti      0.07414398     6.58737399     1.24962800    -0.92465286     1.33606140     0.81706321
Ti      0.05095601     2.91468199     0.97052198    -0.53223809    -1.80192721     1.82936475
Ti      5.60955624     2.88391923     3.65062679    -0.90654869    -0.20118350    -1.57150794
Ti      5.62094525    -1.01741280     3.67262781     0.93623645     0.40981008    -0.61999887
Ti      1.89269123     2.85327023     3.71285882     1.01740698     0.65761978    -0.63155856
Ti      1.91035421    -0.94465579     3.65203583    -1.05495744    -0.66446175     0.32854083
O       3.92793398     4.84312100     0.87192498    -0.55378472    -2.07066518    -0.40503426
O       4.01989599     0.90382098     0.69556301    -0.47389048     0.50280178     0.79821753
O      -0.04593200     4.74753698     0.80281100     0.42759801     0.09767984    -0.46805613
O      -0.07256100     0.90197098     0.79267302     0.38435564    -0.17291241    -0.11335844
O       5.76334124     4.74536323     4.01906380     0.08644643    -0.75541379     0.23403064
O       5.78737520     0.93306025     3.96176084     0.33415123     0.63721447     0.02855494
O       1.73683424     4.71771520     3.99912684     0.06703460     0.09968788     0.29790509
O       1.72555621     0.98126020     4.11593483    -0.21701173     0.29146319     0.10601588
O       3.75556724     2.73020424     3.37059682     0.53600039     0.38801381    -1.07762121
O       3.75973721    -0.75353380     3.23005084     0.58322900    -0.19841468    -0.04259342
O       0.05870121    -0.92455780     3.21550979    -0.47593580     0.06251460    -0.12811375
O       5.71251800     6.47282003     1.72546402    -0.03461657     0.50733721    -0.33977038
O       5.80209199     2.84744198     1.67656799     0.06987207     0.25833580     0.33076894
O       1.94062299     6.42621200     1.63480702    -0.21310931     0.68041854    -0.29067798
O       1.89910899     2.85478998     1.61971001    -0.58650407     0.00875769     0.10027666
