# total energy = -19958.76979485 eV

CRYSTAL
PRIMVEC
        7.60600008     0.00000000     0.00000000
        0.00000000     7.60600008     0.00000000
       -1.89786986    -1.89786986     4.85670466
PRIMCOORD
24 1
Ti      3.91041001     6.65231801     1.08476902    -0.90713901    -1.61576770     0.96899001
Ti      3.86616502     2.61067199     1.20506598     0.30616502     2.44707739     1.27021414
Ti     -0.10231198     6.75737800     1.17077202     0.51359887     1.05716191     0.27345184
Ti     -0.03038001     3.01861600     1.22883901    -0.46806076    -1.26652769     1.07787189
Ti      5.62969620     2.91834522     3.69875683    -1.51326369     1.86522805    -0.57218637
Ti      5.75963822    -0.74285378     3.71117482    -1.00777743    -1.70502949     0.53880675
Ti      1.67914524     2.61499823     3.64238279     1.83102439     1.43840034     0.41045646
Ti      2.03582521    -0.98786280     3.56987381     0.89785295    -0.90914421    -1.79360480
O       3.97241101     4.60974198     0.64691601    -0.89428760     0.66558326     1.00218013
O       4.18699100     0.90642200     0.64752600    -1.08692681     0.26173094     1.09464809
O      -0.10874100     4.89980102     0.89271800     0.51440903    -1.60731134     0.08088745
O      -0.27506898     1.02663498     0.80042800     1.01785898     0.08466697    -0.07559637
O       5.34682323     4.84123025     4.13924879     1.47231835    -0.32139059    -0.49424463
O       5.51828322     1.11208324     4.24115579     0.66430954    -0.97644029    -1.49695801
O       2.36860324     4.77878924     4.14506583    -1.87629691    -0.90163659    -1.73919381
O       2.02582424     0.89846121     4.05330279    -0.85265603    -1.27060469    -0.42573910
O       3.87749920     2.87958421     3.08740079    -1.42151461    -0.55771259     0.35888397
O       3.83684124    -0.87938675     3.23657882    -0.85568762     0.64316349    -0.47198992
O      -0.14385678     2.79967124     3.16891981     1.55991741     0.53679820     2.08643248
O      -0.03937677    -0.92391078     3.17383883     0.99182141     0.17203078     1.30058556
O       5.64557200     6.71338602     1.82352401     0.74076698    -0.24255873    -1.29733054
O       5.73166998     2.79837698     1.72442001    -0.34130996     0.37035161    -1.00309056
O       1.95680301     6.59914702     1.46216199     0.07041997     0.48488761     0.65326433
O       1.80687101     2.36759701     1.77008499     0.64445753     1.34704335    -1.74673897
