# total energy = -19960.65172711 eV

CRYSTAL
PRIMVEC
        5.93400000     0.00000000     0.00000000
        0.00000000     9.29699974     0.00000000
        0.00000000     0.00000000     4.64899994
PRIMCOORD
24 1
Ti      4.42342502     6.92983602     2.26630598    -0.16737579    -0.14427031     1.32655757
Ti      4.51509699     2.47404800     2.35867302    -0.61491477    -1.21101601    -0.25907576
Ti      1.46272598     6.97835300     2.22007801     0.15564282     0.09024987     1.25390074
Ti      1.50941497     2.22959801     2.39492701     0.31729353    -0.01848212     0.70970315
Ti      2.96242500     4.63091002     0.02956598     0.03644849    -0.09027429    -0.40191397
Ti      2.92874398     9.23921200     0.03284698     1.57712041     0.25955167    -0.71120468
Ti      0.00553900     4.71326498     4.63255402    -0.05801362    -0.04572426    -0.32971479
Ti      5.92181702     9.28915998     0.00810498    -1.86171541    -0.12439927    -0.39285700
O       4.39244899     5.61264299     0.79740402     0.56931521    -0.20320696     0.09679307
O       4.47027398     0.93873001     0.89791801    -0.20480953    -0.89572845    -0.35901252
O       1.52863702     5.67147300     0.90534898    -0.40429250    -1.37424641    -1.53175379
O       1.44188000     0.85714702     0.92495802     0.60390762     0.34793775     0.50723282
O       4.47786000     8.37406901     3.68204801    -0.46059068     0.26479518     0.71119414
O       4.47056101     3.70576901     3.78352299     0.11153450     0.99084182     0.84824479
O       1.47069799     8.35426598     3.63638599     0.30829287     0.90761904     1.17114075
O       1.47626001     3.66127701     3.90759902    -0.13409362     0.08273350    -0.65956148
O       2.92629902     5.98947699     3.05657801    -0.06412308    -0.27906841     1.09827849
O       3.04109000     1.45249000     3.26797401    -1.65960657    -0.16270538    -0.34496195
O       0.01266898     6.01404499     3.21167600     0.06950723    -0.15904053     0.01348596
O       5.87879999     1.44880799     3.31907300     1.61747954     0.07215392    -0.76955769
O       3.03129800     7.92160198     1.46420800    -0.92060414     0.53221624    -1.00122034
O       3.09834799     3.38123000     1.52567500    -1.78474709    -0.46782936    -0.37568922
O       5.81091300     7.73725398     1.33890401     1.35127436     1.18156092    -0.50144295
O       5.88525902     3.25968497     1.45807801     1.61707048     0.44633159    -0.09856533
