# total energy = -19075.14159297 eV

CRYSTAL
PRIMVEC
        5.17600016     0.00000000     0.00000000
        0.00000000     5.50899976     0.00000000
        0.00000000     0.00000000     9.26300011
PRIMCOORD
22 1
Ti      1.87564998     3.42822698     3.29377500     0.64129559    -0.14886204    -0.61195080
Ti      3.62202200     2.27575799     5.89479802    -0.28211620    -0.39908832     0.40292724
Ti      4.36269198     2.26436300     1.23560501    -0.12514386     0.39651542    -1.99411338
Ti      0.75465899     3.28852799     8.15399202    -0.36702434     0.22509528     1.11715836
Ti      1.83192702     0.57126600     1.34450900     0.11066958     0.17806182    -2.08756685
Ti      3.16284998     4.99235099     7.99616099     0.12785587     0.03790142     1.55320348
Ti      0.59721399     0.17172601     6.01285302     0.82290373     1.39512814    -0.68681364
Ti      4.54610201     4.97937901     3.32320699    -1.19226314    -0.16965456     0.34693450
O       3.44749199     3.45797298     4.38636203     0.50347849    -0.32743114     1.55190585
O       0.85646301     2.01760199     0.26034198     0.00156580    -0.20010595    -0.57266125
O       4.17935498     3.76616999     9.12085400     0.46054594    -0.68425308    -0.35860269
O       3.29768302     0.92432898     0.17779800     0.61505927     0.16123214    -1.04958743
O       1.56599498     4.70812799     9.16047402    -0.00355507     0.37929982    -0.39972159
O       4.49331399     0.85193097     4.66816002    -0.76891440     0.62174568     1.18197976
O       1.00973100     4.79204201     4.26036402     0.19801333    -0.54813729     2.22074001
O       0.21203900     3.50451502     2.28292902    -0.13023157    -0.20172214     1.13544997
O       0.02188598     1.96945098     6.91493598    -0.48143205    -0.86003741    -1.11956569
O       2.76413398     1.98169699     2.32797100    -0.63324366    -0.11972166     0.40861555
O       2.42313501     3.41877598     7.13613000    -0.32433270    -0.69615369    -1.05193999
O       5.17485603     0.67031300     2.02420098     0.39347483    -0.34132744     0.83792026
O       2.43898800     0.60982497     6.54006401    -0.21205850     0.57450344    -0.25121564
O       2.74544301     4.73162499     2.38442803     0.64545229     0.72701106    -0.57309628
