# total energy = -19517.60166068 eV

CRYSTAL
PRIMVEC
        5.93400000     0.00000000     0.00000000
        0.00000000     9.29699974     0.00000000
        0.00000000     0.00000000     4.64899994
PRIMCOORD
23 1
Ti      4.58195398     7.13548203     2.16865801     0.18896818     0.31744728    -0.40022089
Ti      4.45436998     2.19806402     2.37707400     0.51009086    -0.67170044     0.92666089
Ti      1.42926801     7.00911799     2.32203898    -0.48489481    -0.10458223    -0.10334836
Ti      1.48453502     2.45513902     2.29395200    -0.84989286    -2.11670183     0.53227769
Ti      2.95217298     4.41224498     0.08221700     0.34175682     1.31613817    -0.05440353
Ti      3.03992502     9.24906200     0.03198802    -1.54258482     0.56084085    -0.40279663
Ti      5.87506601     4.72487798     0.05640098     0.28795569     0.33835704    -0.64013988
Ti      0.03661002     0.02880698     4.60545199     1.03484370     1.04152882    -0.11341012
O       4.39837901     5.65606902     0.82395602    -0.14421374     0.10508848     0.26918894
O       4.33875698     0.86883999     0.94135098     0.72806829     0.29545020    -0.03484077
O       1.61447698     5.70200901     0.92058199    -0.26953450    -1.22500564    -0.55659519
O       1.38981203     0.88141297     0.96632798     0.64088087     0.57706426    -0.73811925
O       4.44040499     8.47910799     3.63958799    -0.32814873    -1.15785329     0.40754623
O       4.40278599     3.77799298     3.70866102    -0.00296448    -0.18896381     0.21833225
O       1.34988402     8.35832402     3.70736702     1.20795048    -0.54671315     0.67341922
O       1.47426999     3.60505002     3.91961499    -0.51570692     0.68027224    -1.21828863
O       2.90894301     1.43157702     3.30229798     0.19256721     0.27675750    -0.52199738
O       5.79860302     5.86994998     3.14515599     0.50428273     1.22757366    -0.07086811
O       0.03188600     1.25966803     3.11575802    -0.58311279     1.40681973     0.38099392
O       2.96778202     7.97513000     1.51711202     0.17135098    -1.27811977     0.23507502
O       2.99517901     3.16743298     1.33516500     0.08650583    -0.62647909     1.58053586
O       0.17297301     8.00878901     1.43137800    -1.32757418    -1.13355198     0.15323523
O       5.85521302     3.19573898     1.48909499     0.15340647     0.90633348    -0.52223624
