# total energy = -19518.25701654 eV

CRYSTAL
PRIMVEC
        5.93400000     0.00000000     0.00000000
        0.00000000     9.29699974     0.00000000
        0.00000000     0.00000000     4.64899994
PRIMCOORD
23 1
Ti      4.53386701     7.06088999     2.27716099     1.00156949    -0.33106848     0.47291115
Ti      4.42893598     2.25345999     2.32776500    -0.08071236    -0.45318667     0.33615052
Ti      1.48818899     7.13851098     2.23031002    -0.41785790    -0.64706412     0.34322106
Ti      1.44774498     2.33717398     2.33657601    -0.05733922    -0.71812918     0.05256854
Ti      2.98436098     4.52708502     0.08653699    -0.28195962    -0.10020878     0.95485305
Ti      2.95335898     9.28865102     4.60549200    -0.37018731     0.01892307    -0.44034169
Ti      5.91983499     4.60487900     0.02701598     0.28123894     1.23315476    -0.71488239
Ti      5.90840502     0.08128200     0.02672202     0.41592006     0.05639434    -0.34633415
O       4.47079998     5.54050798     0.90844700    -0.58719699     0.20334837     0.19447446
O       4.39019502     0.86487200     0.90937401     0.14522187     0.39299892     0.11788358
O       1.51717298     5.65945602     0.93136403     0.33848509    -0.85921106    -0.26038754
O       1.55202703     0.85015998     0.98586801    -0.48386997     0.52006880    -0.39994502
O       4.50010598     8.40013099     3.70603699    -0.36035001    -0.67255816    -0.02147412
O       4.40690702     3.71530701     3.69700002    -0.06799028     0.55233333     0.50741023
O       1.39057198     8.36537298     3.81852901     0.84844019    -0.40529420    -0.81820169
O       1.47521398     3.75872002     3.71480800     0.43943126    -0.18087306     0.16735445
O       2.96819298     1.34981702     3.22312100    -0.52157290     0.22578768     0.18260419
O       0.07067702     6.00893902     3.28817403    -0.52814258     0.63455955    -0.91019503
O       5.90157398     1.32290201     3.18289897     0.34570937     0.56151654     0.51878093
O       3.03942399     7.90727599     1.36236498    -0.25235053    -1.21052878     1.25108281
O       2.95431001     3.20747402     1.46520899    -0.24233196     0.53701469    -0.75421797
O       0.03005102     7.96299502     1.45174799    -0.56559303    -0.29226846     0.05603259
O       5.84073902     3.08639901     1.37891399     1.00143811     0.93429167    -0.48934848
