# total energy = -19941.85716114 eV

CRYSTAL
PRIMVEC
        6.76988439     0.00000000     0.00000000
        0.00002664     4.80346941     0.00000000
        0.00000000     0.00000000    10.51788585
PRIMCOORD
24 1
Ti      2.45377338     2.84653151     3.90206063     0.44385176     0.09175782     0.40674713
Ti      4.31613777     1.95693790     6.61582533    -0.44385176    -0.09175782    -0.40674713
Ti      5.83859887     1.95693958     1.35684030     0.44474933    -0.09210543    -0.40616940
Ti      0.93131228     2.84653006     9.16104572    -0.44474933     0.09210543     0.40616940
Ti      2.45376005     0.44479692     1.35688247     0.44397414     0.09291945    -0.40631107
Ti      4.31615110     4.35867267     9.16100355    -0.44397414    -0.09291945     0.40631107
Ti      0.93129896     0.44479513     6.61578311    -0.44454107     0.09277238    -0.40613161
Ti      5.83861219     4.35867446     3.90210279     0.44454107    -0.09277238     0.40613161
O       2.14272059     1.69138326     5.36719666     1.01985107     0.65539784    -0.52515316
O       4.62719056     3.11208621     5.15068931    -1.01985107    -0.65539784     0.52515316
O       1.24228009     1.69140262     0.10828753    -1.01969064     0.65462650    -0.52505237
O       5.52763118     3.11206685    10.40959808     1.01969064    -0.65462650     0.52505237
O       4.62717730     0.71035145     0.10825339    -1.01948958    -0.65451800    -0.52418539
O       2.14273385     4.09311796    10.40963223     1.01948958     0.65451800     0.52418539
O       5.52761785     0.71033215     5.36723074     1.01945229    -0.65465762    -0.52533313
O       1.24229324     4.09313738     5.15065516    -1.01945229     0.65465762     0.52533313
O       0.24598190     2.92174239     2.84114338    -1.30646439     0.35951569     0.57194982
O       6.52392925     1.88172708     7.67674258     1.30646439    -0.35951569    -0.57194982
O       3.63093166     1.88168229     2.41783305    -1.30515596    -0.35931720    -0.57176702
O       3.13897949     2.92178718     8.10005274     1.30515596     0.35931720     0.57176702
O       0.24596858     0.52000763     2.41779942    -1.30587844     0.35968718    -0.57175108
O       6.52394257     4.28346178     8.10008631     1.30587844    -0.35968718     0.57175108
O       3.13896622     0.52005242     7.67677609     1.30508808     0.35905032    -0.57185958
O       3.63094493     4.28341705     2.84110981    -1.30508808    -0.35905032     0.57185958
