# total energy = -19072.58526245 eV

CRYSTAL
PRIMVEC
        5.17600016     0.00000000     0.00000000
        0.00000000     5.50899976     0.00000000
        0.00000000     0.00000000     9.26300011
PRIMCOORD
22 1
Ti      1.70807801     3.43519201     3.54415998     0.78137885     1.10702667    -0.35837592
Ti      3.78954597     2.34639002     5.97511898    -0.35684920     0.45608276    -0.08006444
Ti      4.31436101     2.21229000     1.13705300    -0.67191152     0.15002033     1.29099611
Ti      1.31125201     2.70066700     7.80543101    -0.35967073     1.73799593    -2.15048177
Ti      1.71371100     0.68827402     1.55404197     0.85221508     1.73840114     0.68864555
Ti      3.08324299     5.46119098     7.96131699     0.69206050    -1.13476194    -1.39338288
Ti      0.53305601     5.48999801     6.20443699     0.83558698    -1.17316498    -0.75536879
Ti      4.39516600     5.07359002     3.48110702    -0.65117634     0.47245195     0.68866921
O       3.29724899     3.59918298     4.63438698     0.41511761    -0.03589673     0.91039480
O       0.83742898     2.07970797     0.17212601     0.03878588     0.33703061     0.73605183
O       5.13569400     3.58867601     6.48381702     1.55566017    -0.72265046    -0.68182930
O       3.27510499     0.68643402     0.32496399    -0.11429663     0.48468912     0.15682372
O       1.37991302     4.79670501     7.82577697    -1.25654769    -0.59537670     1.86775930
O       4.46425401     0.93254700     4.88120700    -1.07842391     0.34249729     0.45523892
O       1.06578902     5.07833600     4.39608598    -0.67204574    -1.05058117     0.98625471
O       5.10577500     3.52283799     2.74820601     0.38913378    -0.63075020    -1.58941363
O       4.65945400     0.99369798     7.39419001    -0.41168133     0.79710373    -0.44913872
O       2.61043100     1.98678201     2.63455302    -0.51919180     0.17778388    -1.39423931
O       3.10316900     3.34080901     7.53608698    -0.24191210    -0.33905176     1.60834852
O       5.11169999     0.95564299     2.15704098    -0.15504632    -2.08505771     1.22086642
O       2.13255198     1.17609898     6.66664299    -0.07326798     1.07952460    -0.49517100
O       2.51888498     4.88534098     2.56994402     1.00208192    -1.11331611    -1.26258258
