# total energy = -4988.80848100 eV

CRYSTAL
PRIMVEC
        3.04969909     0.00000000     0.00000000
        1.17622694     4.63139286     0.00000000
       -0.00000757    -0.00006262     4.81678377
PRIMCOORD
6 1
Ti      2.11295911     2.31566503     2.40839194     0.00000000     0.00000000     0.00000000
Ti      0.00000000     0.00000000     0.00000000     0.00000000     0.00000000     0.00000000
O       1.75407729     0.90257800     0.93872024    -0.84095802     0.38832517     0.27096995
O       2.47184088     3.72875207     3.87806364     0.84095802    -0.38832517    -0.27096995
O       0.35887861     1.41306169     3.34711315     0.84094182    -0.38838019     0.27062671
O       0.81734064     3.21826846     1.46967073    -0.84094182     0.38838019    -0.27062671
