# total energy = -19903.06228012 eV

CRYSTAL
PRIMVEC
        6.69548749     0.00000000     0.00000000
        3.35345132     6.28765314     0.00000000
        0.00000000     0.00000000    12.40068392
PRIMCOORD
24 1
Ti      4.41404436     3.72605743     4.60056531    -0.06983736    -2.13994281     0.30333064
Ti      5.63489463     2.56159587     7.80011874     0.06983736     2.13994281    -0.30333064
Ti      7.14062604     2.56159811     1.59972717    -0.44412713    -1.48236982     0.56201611
Ti      2.90831316     3.72605548    10.80095694     0.44412713     1.48236982    -0.56201611
Ti      2.73731896     0.58223107     1.59977692    -0.06983736    -2.13994281    -0.30333064
Ti      7.31162016     5.70542247    10.80090727     0.06983736     2.13994281     0.30333064
Ti      1.23158743     0.58222865     7.80006900     0.44412713     1.48236982     0.56201611
Ti      8.81735166     5.70542482     4.60061498    -0.44412713    -1.48236982    -0.56201611
O       3.29997135     2.21398961     6.32797411     1.75130937     1.93273264    -0.89452672
O       6.74896772     4.07366374     6.07270994    -1.75130937    -1.93273264     0.89452672
O       2.40943963     2.21401492     0.12767200     0.27385678    -1.27580500     1.86481230
O       7.63949952     4.07363848    12.27301165    -0.27385678     1.27580500    -1.86481230
O       5.07224219     0.92983714     0.12763175    -1.75130937    -1.93273264    -0.89452672
O       4.97669686     5.35781614    12.27305190     1.75130937     1.93273264     0.89452672
O       5.96277399     0.92981188     6.32801429    -0.27385678     1.27580500     1.86481230
O       4.08616501     5.35784149     6.07266970     0.27385678    -1.27580500    -1.86481230
O       2.28302171     3.82450702     3.34973410     0.63970073     3.26779234     3.03160275
O       7.76591736     2.46314632     9.05094989    -0.63970073    -3.26779234    -3.03160275
O       4.90468062     2.46308760     2.85064731     0.47011173     2.18616226     2.11339282
O       5.14425844     3.82456575     9.55003647    -0.47011173    -2.18616226    -2.11339282
O       0.60629618     0.68068042     2.85060773     0.63970073     3.26779234    -3.03160275
O       9.44264287     5.60697286     9.55007606    -0.63970073    -3.26779234     3.03160275
O       3.46753291     0.68073915     9.05098940    -0.47011173    -2.18616226     2.11339282
O       6.58140614     5.60691414     3.34969452     0.47011173     2.18616226    -2.11339282
