# total energy = -19960.37213314 eV

CRYSTAL
PRIMVEC
        5.93400000     0.00000000     0.00000000
        0.00000000     9.29699974     0.00000000
        0.00000000     0.00000000     4.64899994
PRIMCOORD
24 1
Ti      4.41144799     6.97298900     2.34083499     1.78921516    -0.01353403    -0.54908551
Ti      4.45709699     2.40195898     2.28778502    -1.01889539     0.06263132     0.24013804
Ti      1.51541500     6.98405901     2.30320498    -2.04199069     0.23997786    -0.22980014
Ti      1.49285601     2.28167699     2.42581498     0.96123710    -0.00380086    -0.42912396
Ti      2.95480400     4.67332702     0.00714400    -0.49436290    -1.27499947     0.01268069
Ti      2.97166099     9.25011300     0.07205399    -1.51157602     1.41937211    -0.06678289
Ti      5.92635302     4.64682503     0.02162599     0.54563946    -0.66485024    -0.09464234
Ti      5.87554798     0.04930000     4.58589302     1.03507252    -0.17540098     0.86570001
O       4.45389600     5.58513498     0.82180100    -0.17252289    -0.02995002     0.26415138
O       4.42833298     0.83728398     0.92962197     0.46371303     0.89375976     0.71178806
O       1.51664502     5.52261300     0.80834698     0.17343923     0.97282481     0.42348527
O       1.53802198     0.82594398     1.01735702    -0.84482650     0.09629813    -0.32309343
O       4.33289401     8.44723501     3.71054701     1.23920199    -1.24347337    -1.22087439
O       4.51593600     3.70939801     3.79671098    -0.24316371     0.01299410    -0.50439046
O       1.40812098     8.45334701     3.81061702     0.71847396    -1.09231199    -1.87212092
O       1.52422299     3.68575198     3.73763803     0.03347192     0.82196013     0.88282562
O       2.88555798     5.96706300     3.12062503     0.97000199     0.71678140    -0.07314817
O       3.08035199     1.48698098     3.24526003     0.18720775    -0.29565075     0.20579683
O       0.06820200     5.99829102     3.04895299    -0.82236997     0.40233100     0.83615803
O       0.03681200     1.52549900     3.33581898    -1.17093815    -0.92747490    -0.12398070
O       2.97604401     7.82663800     1.33573101     0.26357622    -0.52102885     0.78921275
O       2.84972400     3.18983400     1.41325400     2.19699458     0.69331674    -0.35585264
O       5.92129202     7.74745101     1.21234101    -0.39758654     0.30220963     1.51077281
O       0.18278100     3.35349101     1.52965198    -1.85901215    -0.39198153    -0.89981419
