# total energy = -19517.09103530 eV

CRYSTAL
PRIMVEC
        5.17600016     0.00000000     0.00000000
        0.00000000     5.50899976     0.00000000
        0.00000000     0.00000000     9.26300011
PRIMCOORD
23 1
Ti      1.92167803     3.21711198     3.34530802    -0.57499581    -1.18789587     3.45626996
Ti      3.34053500     2.27448399     5.90813900    -0.02739434    -0.54971466    -3.69674661
Ti      4.43048101     2.11531298     1.52996102     0.42721672    -0.85687727    -1.84722852
Ti      0.85571300     3.41723702     7.71598100     0.34788967    -0.75867035     2.38550125
Ti      1.92496501     0.21513098     1.33191199     0.44157479     0.43793565    -1.14799644
Ti      3.28647500     5.14389799     7.88084998    -0.18455360     0.26512351     1.95635518
Ti      0.66987802     0.64837802     5.89043998     0.33936517    -0.20516717    -3.89543794
Ti      4.49505302     4.96547699     3.39379601     0.54647121    -0.30182063     4.22789430
O       1.66326400     1.93657701     4.83706800    -0.06924960     0.24632052    -0.19950200
O       3.53205198     3.53516798     4.49601099    -0.07542334    -0.28727023     0.35433157
O       0.32817398     2.51826500     0.07400898    -0.69787402     0.13903631     0.25797970
O       3.46690698     0.73630601     0.31429398     0.14572170    -0.42812355    -1.40380793
O       1.69254999     4.68830199     9.00038701     0.34575128     0.17314844     0.51139929
O       4.15166101     0.74516999     4.84815400     0.22451395     0.32346598    -0.29940713
O       0.91385403     4.81584001     4.46103798     0.55017617    -0.29229880     0.13145978
O       0.14910299     3.32219298     2.69430401    -0.21092515    -0.30117425    -1.09621415
O       5.02955702     2.14655401     6.78546498    -0.63832262    -0.21962603     0.28089184
O       2.57645100     1.83069700     2.21780900     0.18307058     0.87968476     0.19585771
O       2.52301801     3.61939898     6.89094700     0.37634485     0.29153081     1.30225781
O       0.13109901     0.57358602     2.15262098     0.92440038     0.60117454    -1.06282528
O       5.11310998     4.78249702     6.97817102    -1.82801029     0.33278289     1.38313189
O       2.40562099     0.81715397     6.93065498    -0.64702555     0.88814421    -0.06707856
O       2.84037302     4.54359001     2.43053302     0.10127811     0.81029195    -1.72708571
