# total energy = -4984.68240558 eV

CRYSTAL
PRIMVEC
        2.76565849     0.00000000     0.00000000
        1.06667639     4.20003765     0.00000000
       -0.00000686    -0.00005679     4.36816175
PRIMCOORD
6 1
Ti      1.91616390     2.09999034     2.18408093     0.00000000     0.00000000     0.00000000
Ti      0.00000000     0.00000000     0.00000000     0.00000000     0.00000000     0.00000000
O       1.59070734     0.81851436     0.85129041    -4.85756001     2.25851390     2.60243225
O       2.24162040     3.38146634     3.51687144     4.85756001    -2.25851390    -2.60243225
O       0.32545364     1.28145300     3.03537222     4.85627034    -2.25687920     2.60049749
O       0.74121578     2.91852777     1.33278964    -4.85627034     2.25687920    -2.60049749
