# total energy = -39029.22494200 eV

CRYSTAL
PRIMVEC
        7.60600008     0.00000000     0.00000000
        0.00000000     7.60600008     0.00000000
       -3.79573973    -3.79573973     9.71340985
PRIMCOORD
46 1
Ti      1.96197847     4.30170547     6.14910362     0.54610817     3.44948507     0.35781490
Ti      3.79384501    -0.26475098     1.46531699    -0.73840979    -1.91465393    -0.66467489
Ti      1.96263444     0.53378146     6.29955962    -0.94206746    -4.03415260    -1.37216870
Ti      3.57810601     3.13081100     1.19894901    -0.95526854    -0.12330013     1.03492931
Ti     -1.82305256     4.64494544     5.97181263    -0.90336823     0.34199619     1.85592605
Ti      0.02954201     7.07589799     1.25040398    -1.08730785    -1.49542692    -2.63383288
Ti     -1.89580856     0.81361447     6.04128064     0.26417503    -1.07323182    -1.42586929
Ti     -0.23738500     3.12372902     1.11444099     1.48975686     0.38881933     0.19668561
Ti      4.06480943     1.35209444     8.48908965    -3.98323908     0.65317563     1.22388001
Ti      5.69752302     2.76901299     3.58427902     0.03224216    -1.64952810     0.59127270
Ti      4.03678447    -2.44475656     8.43094963    -0.50226313    -1.90676115    -0.89680420
Ti      5.69481802    -1.18634099     3.46168998    -2.32313784     1.73293471     2.79868822
Ti     -0.04940854     1.22517747     8.43393361     0.75456481     1.33146221    -1.23863558
Ti      1.90484802     2.14017600     3.47805600    -0.59540601     1.54558556    -0.33039331
Ti      0.19060647    -2.64144656     8.47004763     0.12988987    -0.19260552     1.27406514
Ti      1.62922298    -1.32100602     3.44564299     5.57144249     0.07702617     2.76862379
O       1.60591246    -1.49098357     5.82232863     1.05444811    -0.32806466    -0.51019782
O       3.50830001     1.36940902     0.67512799     1.05343406    -0.77397947     0.00548494
O      -1.80066355     2.76612543     5.53340362    -0.12993692    -0.85606454     0.23871725
O       0.42305599     5.00642901     0.75362000    -1.84029348    -0.45869834     0.94843891
O      -2.01839258    -1.03933957     5.64310862     0.48370645    -0.56045879    -0.27984591
O       7.31111902     1.16105902     0.64748700     0.08692852     1.15993717     0.15165195
O      -3.45423556     3.12410643     8.87550260    -0.62556120     0.23385298     1.13120559
O       5.70357199     4.63792897     4.03817901     0.03645260    -0.24976348    -1.11848351
O       4.10709746    -0.63450855     8.83309561    -1.91331849    -2.29626080     0.96793020
O       5.88085198     0.81049301     3.99571401    -0.86951450     0.29494575     0.35368957
O      -0.13005457     2.92971243     9.39245660     0.62005544    -0.34493059    -0.24788118
O       1.92009700     3.81570400     4.40642599    -0.60477820    -0.28347940    -0.54920661
O      -0.08582154    -0.42285654     9.02390962     0.63794338    -2.29081340     0.16464939
O       1.81852101     0.46645498     4.49592299    -0.05979077     1.80537814    -4.16847659
O       1.89199145     1.34632445     7.82714061    -1.04018594     2.31590866     4.53635686
O       3.73023002     2.51483598     3.30891000     0.39376434    -0.42680123    -1.20993151
O       2.05970047    -2.98093954     8.11464261    -0.43037969     0.91621861     1.41093709
O       3.65696702     6.32628402     3.14791401     0.51129568     0.22145511    -0.25176714
O      -1.97229558     0.86274847     8.13642561     4.62193940     1.37524605    -2.01741736
O      -0.07107099     2.72395000     3.06328502    -1.38487972     0.01930796    -0.28885763
O      -1.79728253    -2.92745056     7.90579461    -0.15718008     1.69394624     1.44356389
O      -0.03154500    -1.12640802     3.45681202    -2.64047353    -0.22634329    -1.45171737
O       3.88542347     4.55073543     6.48723862     0.08165184     0.06117428    -0.27148854
O       5.65676700     6.84233598     1.69189402     0.62397766     0.06487641    -1.33982421
O       3.74295546     0.74016943     6.58385364     2.46110791     0.61670041    -1.16356165
O       5.42424001     3.18126202     1.29245500     2.08846853     0.49553789     1.42073583
O       0.12300545     4.37196745     6.80667864    -0.68227539    -1.47273384    -3.15248938
O       1.79082800    -0.52362798     1.63211499     0.73553709     0.27063390     1.55828964
O      -0.04769856     0.61953543     6.58656461    -0.90620519     1.02280501    -0.41273034
O       1.69648702     2.64897098     1.58218097     1.03635062     0.86964306     0.56271905
