# total energy = -19924.44197485 eV

CRYSTAL
PRIMVEC
        6.26461835     0.00000000     0.00000000
        0.33319853     6.65911751     0.00000000
        0.00000000     0.00000000    11.21579533
PRIMCOORD
24 1
Ti      2.46807589     3.94618671     4.16098007    -0.00921124    -1.12504703     0.66381949
Ti      4.12974072     2.71293055     7.05481539     0.00921124     1.12504703    -0.66381949
Ti      5.53857402     2.71293283     1.44687284     0.09431890     0.62269211    -0.56595272
Ti      1.05924266     3.94618469     9.76892274    -0.09431890    -0.62269211     0.56595272
Ti      2.30147676     0.61662820     1.44691779    -0.00921124    -1.12504703    -0.66381949
Ti      4.29633986     6.04248925     9.76887780     0.00921124     1.12504703     0.66381949
Ti      0.89264352     0.61662574     7.05477037    -0.09431890    -0.62269211    -0.56595272
Ti      5.70517316     6.04249172     4.16102508     0.09431890     0.62269211     0.56595272
O       2.10011603     2.34478838     5.72333451     1.50812226     1.47737057    -0.13659016
O       4.49770059     4.31432888     5.49246095    -1.50812226    -1.47737057     0.13659016
O       1.26688071     2.34481525     0.11547289    -1.28820158     1.09137430     0.18208765
O       5.33093597     4.31430207    11.10032224     1.28820158    -1.09137430    -0.18208765
O       4.33110145     0.98477019     0.11543652    -1.50812226    -1.47737057    -0.13659016
O       2.26671516     5.67434707    11.10035861     1.50812226     1.47737057     0.13659016
O       5.16433684     0.98474338     5.72337094     1.28820158    -1.09137430     0.18208765
O       1.43347972     5.67437401     5.49242451    -1.28820158     1.09137430    -0.18208765
O       0.43027830     4.05045261     3.02966618     0.47303611     0.06381738     0.58847765
O       6.16753838     2.60866465     8.18612934    -0.47303611    -0.06381738    -0.58847765
O       3.49045476     2.60860261     2.57826721     0.52319295     0.61330423    -0.08570159
O       3.10736192     4.05051465     8.63752805    -0.52319295    -0.61330423     0.08570159
O       0.26367916     0.72089392     2.57823142     0.47303611     0.06381738    -0.58847765
O       6.33413752     5.93822334     8.63756384    -0.47303611    -0.06381738     0.58847765
O       2.94076279     0.72095596     8.18616507    -0.52319295    -0.61330423    -0.08570159
O       3.65705389     5.93816130     3.02963032     0.52319295     0.61330423     0.08570159
