# total energy = -19904.35514226 eV

CRYSTAL
PRIMVEC
        6.67880799     0.00000000     0.00000000
        0.35522818     7.09938974     0.00000000
        0.00000000     0.00000000    11.95733551
PRIMCOORD
24 1
Ti      2.63125447     4.20709161     4.43608619    -0.02290648    -1.11081468     0.63387358
Ti      4.40278143     2.89229786     7.52124946     0.02290648     1.11081468    -0.63387358
Ti      5.90476074     2.89230029     1.54253385     0.13175674     0.66873235    -0.57703495
Ti      1.12927524     4.20708946    10.41480193    -0.13175674    -0.66873235     0.57703495
Ti      2.45364052     0.65739701     1.54258177    -0.02290648    -1.11081468    -0.63387358
Ti      4.58039538     6.44199267    10.41475401     0.02290648     1.11081468     0.63387358
Ti      0.95166128     0.65739438     7.52120147    -0.13175674    -0.66873235    -0.57703495
Ti      6.08237469     6.44199530     4.43613418     0.13175674     0.66873235     0.57703495
O       2.23896668     2.49981571     6.10173679     1.49530453     1.46875660    -0.14987917
O       4.79506922     4.59957377     5.85559886    -1.49530453    -1.46875660     0.14987917
O       1.35064142     2.49984436     0.12310746    -1.29246190     1.11476801     0.14201699
O       5.68339455     4.59954519    11.83422784     1.29246190    -1.11476801    -0.14201699
O       4.61745527     1.04987896     0.12306869    -1.49530453    -1.46875660    -0.14987917
O       2.41658063     6.04951052    11.83426662     1.49530453     1.46875660     0.14987917
O       5.50578060     1.04985038     6.10177563     1.29246190    -1.11476801     0.14201699
O       1.52825524     6.04953924     5.85556002    -1.29246190     1.11476801    -0.14201699
O       0.45872645     4.31825113     3.22997469     0.48741423     0.06547548     0.59168690
O       6.57530952     2.78113835     8.72736103    -0.48741423    -0.06547548    -0.59168690
O       3.72122862     2.78107220     2.74873116     0.50084363     0.61179808    -0.06597247
O       3.31280734     4.31831728     9.20860428    -0.50084363    -0.61179808     0.06597247
O       0.28111250     0.76855632     2.74869300     0.48741423     0.06547548    -0.59168690
O       6.75292347     6.33083315     9.20864244    -0.48741423    -0.06547548     0.59168690
O       3.13519339     0.76862247     8.72739912    -0.50084363    -0.61179808    -0.06597247
O       3.89884258     6.33076701     3.22993646     0.50084363     0.61179808     0.06597247
