# total energy = -4987.64306276 eV

CRYSTAL
PRIMVEC
        3.18000384     0.00000000     0.00000000
        1.46188400     4.76330678     0.00000000
       -0.00000974    -0.00006530     5.04088333
PRIMCOORD
6 1
Ti      2.32093911     2.38162079     2.52044167     0.00000000     0.00000000     0.00000000
Ti      0.00000000     0.00000000     0.00000000     0.00000000     0.00000000     0.00000000
O       1.87489969     0.92828571     0.98239390     0.00580761     0.11501963    -0.17049120
O       2.76697859     3.83495586     4.05848938    -0.00580761    -0.11501963     0.17049120
O       0.44603543     1.45330865     3.50283668    -0.00624033    -0.11458434    -0.17068892
O       1.01583904     3.30993269     1.53804665     0.00624033     0.11458434     0.17068892
