# total energy = -4973.92892076 eV

CRYSTAL
PRIMVEC
        2.78288969     0.00000000     0.00000000
        2.05193952     3.84738596     0.00000000
       -0.00001320    -0.00005944     4.51219296
PRIMCOORD
6 1
Ti      2.41740778     1.92366316     2.25609658     0.00000000     0.00000000     0.00000000
Ti      0.00000000     0.00000000     0.00000000     0.00000000     0.00000000     0.00000000
O       1.79133495     0.74978724     0.87936000   -12.71592376     4.98649522     7.54497213
O       3.04348064     3.09753919     3.63283320    12.71592376    -4.98649522    -7.54497213
O       0.62606724     1.17385203     3.13545746    12.71441787    -4.98635458     7.54480372
O       1.42585878     2.67347446     1.37673570   -12.71441787     4.98635458    -7.54480372
