# total energy = -39038.84181823 eV

CRYSTAL
PRIMVEC
        5.93188753     0.00000000     0.00000000
        0.00000000     9.29428401    -0.00002646
        0.00000000    -0.00002646     9.29428401
PRIMCOORD
46 1
Ti      4.44891576     6.97069300     6.97069300     0.00000000     0.00000000     0.00000000
Ti      4.44891576     6.97070623     2.32355100    -0.00000000     0.00000000     0.00000000
Ti      4.44891576     2.32355100     6.97070623     0.00000000     0.00000000     0.00000000
Ti      4.44891576     2.32356423     2.32356423     0.00000000     0.00000000     0.00000000
Ti      1.48297199     6.97069300     6.97069300     0.00000000     0.00000000     0.00000000
Ti      1.48297199     6.97070623     2.32355100    -0.00000000     0.00000000     0.00000000
Ti      1.48297199     2.32355100     6.97070623     0.00000000     0.00000000     0.00000000
Ti      1.48297199     2.32356423     2.32356423     0.00000000     0.00000000     0.00000000
Ti      2.96594376     4.64229160     4.64093565     0.00000000     0.04964648     0.03501098
Ti      2.96594376     4.77494673    -0.12781795     0.00000000    -0.05629432     0.05629432
Ti      2.96594376     0.03531871     4.61181006     0.00000000    -0.00301796     0.00301796
Ti      2.96594376     0.00619312     0.00483717    -0.00000000    -0.03501098    -0.04964648
Ti      0.00000000     4.64093565     4.64229160    -0.00000000     0.03501098     0.04964648
Ti      0.00000000     4.61181006     0.03531871     0.00000000     0.00301796    -0.00301796
Ti      0.00000000    -0.12781795     4.77494673     0.00000000     0.05629432    -0.05629432
Ti      0.00000000     0.00483717     0.00619312     0.00000000    -0.04964648    -0.03501098
O       4.44891576     5.55362218     5.55362218    -0.00000000     0.00943801     0.00943801
O       4.41643722     5.49602456     0.94747640    -0.01603289    -0.02389713     0.02612910
O       4.48139429     0.94747640     5.49602456     0.01603289     0.02612910    -0.02389713
O       4.44891576     0.93990420     0.93990420    -0.00000000     0.03142635     0.03142635
O       1.48297199     5.55362218     5.55362218    -0.00000000     0.00943801     0.00943801
O       1.51545053     5.49602456     0.94747640     0.01603289    -0.02389713     0.02612910
O       1.45049346     0.94747640     5.49602456    -0.01603289     0.02612910    -0.02389713
O       1.48297199     0.93990420     0.93990420     0.00000000     0.03142635     0.03142635
O       4.44891576     8.38776389     8.38776389    -0.00000000    -0.00943801    -0.00943801
O       4.48139429     8.44538796     3.69962565     0.01603289     0.02389713    -0.02612910
O       4.41643722     3.69962565     8.44538796    -0.01603289    -0.02612910     0.02389713
O       4.44891576     3.70722431     3.70722431     0.00000000    -0.03142635    -0.03142635
O       1.48297199     8.38776389     8.38776389    -0.00000000    -0.00943801    -0.00943801
O       1.45049346     8.44538796     3.69962565    -0.01603289     0.02389713    -0.02612910
O       1.51545053     3.69962565     8.44538796     0.01603289    -0.02612910     0.02389713
O       1.48297199     3.70722431     3.70722431     0.00000000    -0.03142635    -0.03142635
O       2.96594376     6.07397912     7.86740690     0.00000000    -0.10040676     0.10040676
O       2.96594376     6.07718647     3.24820042     0.00000000     0.03883910     0.05105261
O       2.96594376     1.39890159     7.86422600     0.00000000    -0.05105261    -0.03883910
O       2.96594376     1.45048571     3.19664276    -0.00000000     0.04985757    -0.04985757
O       0.00000000     6.03542274     7.90596327     0.00000000     0.02074444    -0.02074444
O       0.00000000     6.06470420     3.23856986     0.00000000     0.01800004     0.02796204
O       0.00000000     1.40853215     7.87670827     0.00000000    -0.02796204    -0.01800004
O       2.96594376     7.90596327     6.03542274     0.00000000    -0.02074444     0.02074444
O       2.96594376     7.87670827     1.40853215     0.00000000    -0.01800004    -0.02796204
O       2.96594376     3.23856986     6.06470420     0.00000000     0.02796204     0.01800004
O       0.00000000     7.86740690     6.07397912     0.00000000     0.10040676    -0.10040676
O       0.00000000     7.86422600     1.39890159     0.00000000    -0.03883910    -0.05105261
O       0.00000000     3.24820042     6.07718647     0.00000000     0.05105261     0.03883910
O       0.00000000     3.19664276     1.45048571    -0.00000000    -0.04985757     0.04985757
