# total energy = -4986.48146431 eV

CRYSTAL
PRIMVEC
        3.11633420     0.00000000     0.00000000
        1.87801103     4.50722615     0.00000000
       -0.00001197    -0.00006487     4.98750733
PRIMCOORD
6 1
Ti      2.49716654     2.25358049     2.49375361     0.00000000     0.00000000     0.00000000
Ti      0.00000000     0.00000000     0.00000000     0.00000000     0.00000000     0.00000000
O       1.92416137     0.87837924     0.97199170    -1.51412116     0.97014880     0.77445590
O       3.07017171     3.62878174     4.01551547     1.51412116    -0.97014880    -0.77445590
O       0.57300004     1.37517506     3.46574640     1.51382882    -0.96981019     0.77401932
O       1.30499900     3.13198610     1.52176082    -1.51382882     0.96981019    -0.77401932
