# total energy = -4985.66374512 eV

CRYSTAL
PRIMVEC
        2.79555750     0.00000000     0.00000000
        1.07820803     4.24544346     0.00000000
       -0.00000693    -0.00005740     4.41538512
PRIMCOORD
6 1
Ti      1.93687918     2.12269294     2.20769261     0.00000000     0.00000000     0.00000000
Ti      0.00000000     0.00000000     0.00000000     0.00000000     0.00000000     0.00000000
O       1.60790418     0.82736316     0.86049355    -4.28394874     1.99134790     2.26667665
O       2.26585414     3.41802273     3.55489167     4.28394874    -1.99134790    -2.26667665
O       0.32897206     1.29530655     3.06818705     4.28451438    -1.99424091     2.26962956
O       0.74922892     2.95007942     1.34719817    -4.28451438     1.99424091    -2.26962956
