# total energy = -19520.00731150 eV

CRYSTAL
PRIMVEC
        5.17575250     0.00001323     0.00000000
        0.00001429     5.50856584     0.00000000
        0.00000000     0.00000000     9.26345890
PRIMCOORD
23 1
Ti      1.84324723     3.37821112     3.40726059     0.02085654     0.00340106    -0.01762518
Ti      3.37839644     2.17242481     5.76849325    -0.02229379    -0.02205365     0.00531807
Ti      4.56925193     1.94461370     1.42720583     0.02496773     0.02080280    -0.00681934
Ti      0.85060341     3.30541639     7.94555179     0.00234382     0.01958050     0.00135831
Ti      2.02287927     0.49740877     1.24659814    -0.00924955    -0.03166675     0.02951653
Ti      3.16100232     5.16128834     7.91367736    -0.01513069     0.03397148     0.00891787
Ti      0.62360622     0.71328874     5.65429550     0.00612334    -0.02916403     0.00101070
Ti      4.57018823     4.83625419     3.57016649     0.01218318    -0.00480771    -0.00548108
O       1.53828825     1.94922457     4.65444292    -0.00917447     0.01726676     0.03500507
O       3.57593768     3.52667564     4.50753226    -0.01928611    -0.03214471     0.01182219
O       0.73392020     2.10984696     0.10143739     0.01452571     0.02399611    -0.03096124
O       3.52725975     0.87074150     0.08105878     0.03469654     0.00372039     0.00383789
O       1.70273290     4.69750611     9.14955262    -0.00547568     0.01154477    -0.03569747
O       4.06221168     0.77274532     4.69537689     0.02777435     0.01555878     0.03977652
O       1.03448690     4.63670775     4.62332929    -0.02830631    -0.00998540    -0.01924291
O       0.17753513     3.36241718     2.39831667    -0.01495817     0.00326607    -0.01093722
O       4.94703493     2.14446400     6.83640894    -0.01772159    -0.00234382    -0.01513198
O       2.78287841     2.13005184     2.10317467    -0.01227959     0.01261409    -0.01773830
O       2.48744792     3.41027512     7.13704831    -0.00955834    -0.01536595     0.02045956
O       0.26444449     0.54718536     2.19459575     0.01284626    -0.01227445     0.03502872
O       4.89805742     4.76901594     7.36515663     0.02880202     0.00228314    -0.02867295
O       2.32754357     0.73067498     6.75142507    -0.03422422     0.01143293     0.02268742
O       2.80423360     4.86761683     2.46131782     0.01253876    -0.01963244    -0.02643121
