# total energy = -19901.22002847 eV

CRYSTAL
PRIMVEC
        7.94995598     0.00000000     0.00000000
        0.00003129     5.64077142     0.00000000
        0.00000000     0.00000000    12.35127879
PRIMCOORD
24 1
Ti      2.88149534     3.34271590     4.58223634     0.55131260    -0.72565608     1.62940124
Ti      5.06849207     2.29805552     7.76904259    -0.55131260     0.72565608    -1.62940124
Ti      6.85633629     2.29805749     1.59335375     0.55085469     0.72589571    -1.63020574
Ti      1.09365112     3.34271420    10.75792524    -0.55085469    -0.72589571     1.63020574
Ti      2.88147970     0.52233032     1.59340326     0.55131260    -0.72565608    -1.62940124
Ti      5.06850771     5.11844130    10.75787573    -0.55131260     0.72565608     1.62940124
Ti      1.09363548     0.52232822     7.76899301    -0.55085469    -0.72589571    -1.63020574
Ti      6.85635193     5.11844340     4.58228585     0.55085469     0.72589571     1.63020574
O       2.51622234     1.98621153     6.30276305     0.67966289     1.51389850    -1.65668168
O       5.43376506     3.65455995     6.04851588    -0.67966289    -1.51389850     1.65668168
O       1.45882433     1.98623426     0.12716334    -0.67977319     1.51403220    -1.65741599
O       6.49116321     3.65453722    12.22411518     0.67977319    -1.51403220     1.65741599
O       5.43374949     0.83417418     0.12712324    -0.67966289    -1.51389850    -1.65668168
O       2.51623792     4.80659724    12.22415528     0.67966289     1.51389850     1.65668168
O       6.49114757     0.83415151     6.30280308     0.67977319    -1.51403220    -1.65741599
O       1.45883977     4.80662004     6.04847578    -0.67977319     1.51403220     1.65741599
O       0.28885948     3.43103693     3.33638856    -1.87348386     0.53964390     0.11007257
O       7.66112793     2.20973455     9.01489037     1.87348386    -0.53964390    -0.11007257
O       4.26384636     2.20968195     2.83929019    -1.87234152    -0.53940864    -0.11016795
O       3.68614105     3.43108953     9.51198854     1.87234152     0.53940864     0.11016795
O       0.28884383     0.61065116     2.83925070    -1.87348386     0.53964390    -0.11007257
O       7.66114357     5.03012026     9.51202796     1.87348386    -0.53964390     0.11007257
O       3.68612547     0.61070375     9.01492972     1.87234152     0.53940864    -0.11016795
O       4.26386193     5.03006773     3.33634914    -1.87234152    -0.53940864     0.11016795
