# total energy = -19888.29297161 eV

CRYSTAL
PRIMVEC
        7.80244690     0.00000000     0.00000000
        0.00002426     2.76805433     0.00000000
        0.00000000     0.00000000    12.41303493
PRIMCOORD
24 1
Ti      2.82802592     1.64034634     4.60514753    -0.40818823     0.48470146     0.95277302
Ti      4.97444492     1.12770773     7.80788777     0.40818823    -0.48470146    -0.95277302
Ti      6.72911628     1.12770862     1.60132053    -0.40669545    -0.48515603    -0.95230508
Ti      1.07335462     1.64034556    10.81171488     0.40669545     0.48515603     0.95230508
Ti      2.82801411     0.25631923     1.60137031    -0.40818823     0.48470146    -0.95277302
Ti      4.97445678     2.51173495    10.81166510     0.40818823    -0.48470146     0.95277302
Ti      1.07334275     0.25631828     7.80783799     0.40669545     0.48515603    -0.95230508
Ti      6.72912814     2.51173589     4.60519731    -0.40669545    -0.48515603     0.95230508
O       2.46953213     0.97467890     6.33427686     5.97384420    -0.37721286     1.18885103
O       5.33293877     1.79337522     6.07875844    -5.97384420     0.37721286    -1.18885103
O       1.43175378     0.97469014     0.12779917    -5.97515109    -0.37755610     1.18850316
O       6.37071716     1.79336398    12.28523576     5.97515109     0.37755610    -1.18850316
O       5.33292690     0.40934800     0.12775886    -5.97384420     0.37721286     1.18885103
O       2.46954399     2.35870607    12.28527607     5.97384420    -0.37721286    -1.18885103
O       6.37070530     0.40933681     6.33431712     5.97515109     0.37755610     1.18850316
O       1.43176549     2.35871731     6.07871818    -5.97515109    -0.37755610    -1.18850316
O       0.28349551     1.68368755     3.35307047     0.34461511    -0.00077673     3.92702755
O       7.51897539     1.08436651     9.05996478    -0.34461511     0.00077673    -3.92702755
O       4.18472927     1.08434085     2.85348661     0.34285648     0.00077930    -3.92637500
O       3.61774162     1.68371326     9.55954848    -0.34285648    -0.00077930     3.92637500
O       0.28348364     0.29966039     2.85344699     0.34461511    -0.00077673    -3.92702755
O       7.51898725     2.46839373     9.55958810    -0.34461511     0.00077673     3.92702755
O       3.61772981     0.29968605     9.06000434    -0.34285648    -0.00077930    -3.92637500
O       4.18474108     2.46836802     3.35303085     0.34285648     0.00077930     3.92637500
