# total energy = -19931.48439028 eV

CRYSTAL
PRIMVEC
        7.19947162     0.00000000     0.00000000
        0.00002533     4.12591581     0.00000000
        0.00000000     0.00000000    10.89219882
PRIMCOORD
24 1
Ti      2.60947729     2.44501402     4.04092822     0.18748491     0.40364509     1.32135211
Ti      4.59001983     1.68090213     6.85127105    -0.18748491    -0.40364509    -1.32135211
Ti      6.20908972     1.68090359     1.40512793     0.18743863    -0.40360652    -1.32101298
Ti      0.99040740     2.44501267     9.48707146    -0.18743863     0.40360652     1.32101298
Ti      2.60946474     0.38205617     1.40517158     0.18748491     0.40364509    -1.32135211
Ti      4.59003238     3.74386009     9.48702780    -0.18748491    -0.40364509     1.32135211
Ti      0.99039485     0.38205454     6.85122739    -0.18743863     0.40360652    -1.32101298
Ti      6.20910228     3.74386167     4.04097188     0.18743863    -0.40360652     1.32101298
O       2.27868722     1.45280516     5.55820586     1.83888400     0.36812143    -0.44991622
O       4.92080991     2.67311093     5.33399341    -1.83888400    -0.36812143     0.44991622
O       1.32110865     1.45282179     0.11214128    -1.83976743     0.36822890    -0.45068833
O       5.87838853     2.67309436    10.78005766     1.83976743    -0.36822890     0.45068833
O       4.92079735     0.61015303     0.11210594    -1.83888400    -0.36812143    -0.44991622
O       2.27869977     3.51576312    10.78009299     1.83888400     0.36812143     0.44991622
O       5.87837598     0.61013640     5.55824119     1.83976743    -0.36822890    -0.45068833
O       1.32112103     3.51577975     5.33395802    -1.83976743     0.36822890     0.45068833
O       0.26158885     2.50961591     2.94225474    -1.26586126     0.49349464     0.81185672
O       6.93790827     1.61630024     7.94994453     1.26586126    -0.49349464    -0.81185672
O       3.86133355     1.61626166     2.50387949    -1.26533392    -0.49337894    -0.81267716
O       3.33816358     2.50965449     8.38831955     1.26533392     0.49337894     0.81267716
O       0.26157630     0.44665795     2.50384473    -1.26586126     0.49349464    -0.81185672
O       6.93792083     3.67925820     8.38835432     1.26586126    -0.49349464     0.81185672
O       3.33815102     0.44669653     7.94997924     1.26533392     0.49337894    -0.81267716
O       3.86134610     3.67921962     2.94221997    -1.26533392    -0.49337894     0.81267716
