# total energy = -19075.77122141 eV

CRYSTAL
PRIMVEC
        7.60600008     0.00000000     0.00000000
        0.00000000     7.60600008     0.00000000
       -1.89786986    -1.89786986     4.85670466
PRIMCOORD
22 1
Ti      3.78116201     6.56987198     1.30060698     0.91603297     0.47367811    -0.85423752
Ti      3.77493899     2.84133501     1.17457098    -0.50684767    -0.80443214     0.62341356
Ti     -0.01992299     6.66386899     1.08796699    -0.17383749    -0.88309096     1.61343134
Ti     -0.09568101     2.84969400     1.09671699     0.28513339     0.90708810     0.12535778
Ti      5.66360122     2.99610523     3.57181383    -0.55747374    -1.26862494    -0.28018453
Ti     -1.42101279    -0.87241680     3.77861582    -1.32599090     0.60771542    -1.75701670
Ti      1.82525024     2.80816724     3.65564783     0.47847322    -1.14681836    -1.08309406
Ti      1.84489922    -1.08792276     3.73004883    -0.72815674     0.68771919     0.52840406
O       3.69380802     4.63436100     0.74371200    -0.42067968     1.52074252     0.70025383
O       3.85403400     0.92377001     0.76795298     0.01205796    -1.33365999     1.64616946
O       0.03438001     4.76247603     0.66448703     0.14745179     0.73308092     0.57915817
O      -0.22643002     0.96325701     0.67326602     0.34199901     0.37719049     1.55859714
O       5.54996824     4.83133125     4.09790380     0.65284524     0.70259302    -1.66322334
O       5.48326624     0.99802422     3.92292182     1.22008352    -1.10395754     0.39828820
O       2.02185721     4.58830522     4.24078484    -0.39727338     2.06530649    -1.03040134
O       2.07357920     0.86998920     4.06696080    -0.50381402    -0.18268003    -0.83810949
O       3.72061222     2.95021725     3.18926783     0.11271360    -0.25712892    -0.51372023
O      -0.06006077     2.87614524     3.17664780     0.38942149    -0.01842222     0.01344302
O       5.72740502     6.61174001     1.88915601     0.25386388    -0.20333345     0.23388126
O       5.67052000     3.18420303     1.58183500    -0.10508051    -0.95884803     0.32786051
O       1.94268499     6.60709902     1.85170000    -0.36030450     0.11893799    -0.91418795
O       1.79407000     2.75315302     1.46561799     0.26938255    -0.03305591     0.58591632
