# total energy = -19955.55795730 eV

CRYSTAL
PRIMVEC
        5.46164826     0.00000000     0.00000000
        1.15108696     5.69773371     0.00000000
        0.00000000     0.00000000     9.82488054
PRIMCOORD
24 1
Ti      2.66171778     3.37647172     3.64496073     0.51891874    -1.63854485     0.85529398
Ti      3.95101717     2.32126212     6.17992020    -0.51891874     1.63854485    -0.85529398
Ti      5.17927291     2.32126417     1.26744048    -0.98689492    -0.43027402     0.31354512
Ti      1.43346207     3.37646990     8.55744056     0.98689492     0.43027402    -0.31354512
Ti      2.08617443     0.52760508     1.26747987     0.51891874    -1.63854485    -0.85529398
Ti      4.52656053     5.17012893     8.55740116    -0.51891874     1.63854485     0.85529398
Ti      0.85791862     0.52760287     6.17988080     0.98689492     0.43027402     0.31354512
Ti      5.75481635     5.17013114     3.64500012    -0.98689492    -0.43027402    -0.31354512
O       2.13396335     2.00626892     5.01356148     1.02004159     1.32511055    -0.56960729
O       4.47877161     3.69146492     4.81131944    -1.02004159    -1.32511055     0.56960729
O       1.40753179     2.00629187     0.10115267    -0.26612187    -0.10922076     0.62237663
O       5.20520322     3.69144203     9.72372798     0.26612187     0.10922076    -0.62237663
O       3.90322824     0.84259811     0.10112077    -1.02004159    -1.32511055    -0.56960729
O       2.70950671     4.85513573     9.72375988     1.02004159     1.32511055     0.56960729
O       4.62965986     0.84257522     5.01359338     0.26612187     0.10922076     0.62237663
O       1.98307505     4.85515869     4.81128755    -0.26612187    -0.10922076    -0.62237663
O       0.89859060     3.46568456     2.65394544     0.12090951     0.62315285     0.59856229
O       5.71414436     2.23204928     7.17093549    -0.12090951    -0.62315285    -0.59856229
O       3.38018903     2.23199607     2.25852628     0.81318932     0.58495653    -0.06546185
O       3.23254592     3.46573778     7.56635448    -0.81318932    -0.58495653     0.06546185
O       0.32304723     0.61681775     2.25849488     0.12090951     0.62315285    -0.59856229
O       6.28968773     5.08091615     7.56638587    -0.12090951    -0.62315285     0.59856229
O       2.65700255     0.61687091     7.17096682    -0.81318932    -0.58495653    -0.06546185
O       3.95573240     5.08086293     2.65391405     0.81318932     0.58495653     0.06546185
