# total energy = -19947.15501778 eV

CRYSTAL
PRIMVEC
        5.41021426     0.00000000     0.00000000
        2.21468075     5.31516224     0.00000000
        0.00000000     0.00000000     9.89067247
PRIMCOORD
24 1
Ti      3.27336026     3.14976032     3.66936894     1.82290845    -3.32133456     1.12043447
Ti      4.35153484     2.16540207     6.22130364    -1.82290845     3.32133456    -1.12043447
Ti      5.56822413     2.16540387     1.27592781    -3.98083922    -0.11002526     1.11788007
Ti      2.05667101     3.14975872     8.61474482     3.98083922     0.11002526    -1.11788007
Ti      2.16601999     0.49217918     1.27596746     1.82290845    -3.32133456    -1.12043447
Ti      5.45887514     4.82298337     8.61470518    -1.82290845     3.32133456     1.12043447
Ti      0.94933061     0.49217722     6.22126393     3.98083922     0.11002526     1.11788007
Ti      6.67556451     4.82298532     3.66940859    -3.98083922    -0.11002526    -1.11788007
O       2.49219370     1.87155903     5.04713447     0.83086027     1.58002550    -1.07984522
O       5.13270134     3.44360336     4.84353811    -0.83086027    -1.58002550     1.07984522
O       1.77260750     1.87158051     0.10183002     0.66953814    -0.78672109     0.59150436
O       5.85228767     3.44358197     9.78884223    -0.66953814     0.78672109    -0.59150436
O       4.02536105     0.78602212     0.10179791    -0.83086027    -1.58002550    -1.07984522
O       3.59953405     4.52914027     9.78887434     0.83086027     1.58002550     1.07984522
O       4.74494732     0.78600068     5.04716653    -0.66953814     0.78672109     0.59150436
O       2.87994768     4.52916178     4.84350600     0.66953814    -0.78672109    -0.59150436
O       1.54366000     3.23298313     2.67171740     0.40190240     0.72476957     0.66992200
O       6.08123505     2.08217927     7.21895518    -0.40190240    -0.72476957    -0.66992200
O       3.76924922     2.08212980     2.27365035     1.58432593     0.24058027    -0.61904499
O       3.85564582     3.23303259     7.61702207    -1.58432593    -0.24058027     0.61904499
O       0.43631970     0.57540183     2.27361872     0.40190240     0.72476957    -0.66992200
O       7.18857540     4.73976056     7.61705364    -0.40190240    -0.72476957     0.66992200
O       2.74830553     0.57545135     7.21898669    -1.58432593    -0.24058027    -0.61904499
O       4.87658951     4.73971105     2.67168583     1.58432593     0.24058027     0.61904499
