# total energy = -4989.06049445 eV

CRYSTAL
PRIMVEC
        3.81360667     0.00000000     0.00000000
       -0.00000770     3.45040642     0.00000000
       -1.90683024    -1.72523784     4.64686543
PRIMCOORD
6 1
Ti     -0.00016670     2.58793446     1.16171613    -0.00099322    -0.00339977     3.30624783
Ti      1.90693513    -0.86276578     3.48514875     0.00099322     0.00339977    -3.30624783
O       0.00003875     0.86259511     0.75693633     0.00078470     0.00345711     0.25881377
O       1.90672952     0.86257347     3.88992865    -0.00078470    -0.00345711    -0.25881377
O      -0.00001955    -0.86258304     3.08036894     0.00045714    -0.00012470     0.94490390
O       1.90678782     2.58775157     1.56649603    -0.00045714     0.00012470    -0.94490390
