# total energy = -19901.80357441 eV

CRYSTAL
PRIMVEC
        6.84752076     0.00000000     0.00000000
        0.00002242     3.12335683     0.00000000
        0.00000000     0.00000000    10.42139141
PRIMCOORD
24 1
Ti      2.48191011     1.85089838     3.86626189    -1.07921170     0.85264060    -1.06812767
Ti      4.36563278     1.27245850     6.55512967     1.07921170    -0.85264060     1.06812767
Ti      5.90555329     1.27245956     1.34439221    -1.08078341    -0.85179857     1.07150533
Ti      0.94198960     1.85089741     9.07699945     1.08078341     0.85179857    -1.07150533
Ti      2.48189905     0.28922001     1.34443402    -1.08020671     0.85208036     1.06929289
Ti      4.36564384     2.83413692     9.07695764     1.08020671    -0.85208036    -1.06929289
Ti      0.94197854     0.28921885     6.55508787     1.08027022     0.85228759     1.07054913
Ti      5.90556435     2.83413808     3.86630369    -1.08027022    -0.85228759    -1.07054913
O       2.16729137     1.09978702     5.31795631     6.96750935    -1.70320298     3.93639125
O       4.68025152     2.02356980     5.10343525    -6.96750935     1.70320298    -3.93639125
O       1.25652468     1.09979962     0.10729406    -6.96590061    -1.70378302     3.93671598
O       5.59101826     2.02355725    10.31409720     6.96590061     1.70378302    -3.93671598
O       4.68024050     0.46189139     0.10726025    -6.96931915     1.70304537     3.93489873
O       2.16730238     2.66146549    10.31413101     6.96931915    -1.70304537    -3.93489873
O       5.59100725     0.46187879     5.31799011     6.96635081     1.70440369     3.93744078
O       1.25653559     2.66147809     5.10340145    -6.96635081    -1.70440369    -3.93744078
O       0.24879980     1.89980266     2.81507783     2.64872729    -1.11870128     0.83162954
O       6.59874309     1.22355417     7.60631372    -2.64872729     1.11870128    -0.83162954
O       3.67256889     1.22352507     2.39565108     2.64938498     1.11880619    -0.83890576
O       3.17497399     1.89983181     8.02574033    -2.64938498    -1.11880619     0.83890576
O       0.24878879     0.33812425     2.39561782     2.64756027    -1.11810016    -0.83821208
O       6.59875410     2.78523263     8.02577359    -2.64756027     1.11810016     0.83821208
O       3.17496298     0.33815335     7.60634693    -2.65003753    -1.11911009    -0.83211368
O       3.67257991     2.78520353     2.81504458     2.65003753     1.11911009     0.83211368
