# total energy = -19072.90233780 eV

CRYSTAL
PRIMVEC
        5.17600016     0.00000000     0.00000000
        0.00000000     5.50899976     0.00000000
        0.00000000     0.00000000     9.26300011
PRIMCOORD
22 1
Ti      1.79647501     3.46551402     3.28369602    -0.74615370     0.28778523    -0.10045612
Ti      3.69661202     2.34915201     6.07279399    -0.98586442     1.60803485     0.17412494
Ti      4.47284398     2.14732201     1.52383701    -0.07880974    -1.42379236     1.03717234
Ti      1.16982500     2.78296099     7.87158700     0.32256275     0.46171322    -0.66710870
Ti      1.77371001     0.59998000     1.08061402    -0.89451977    -0.27848194    -0.84732073
Ti      3.30011697     5.25669699     7.85088601     0.91257921     1.37597033     0.46520349
Ti      0.92092098     5.27024102     6.43986398     1.54482682     2.59402448    -1.57833757
Ti      4.16302901     5.22060001     3.67437198     1.39445709    -0.22883906    -0.78482130
O       3.23662100     3.78262598     4.45538600    -0.43831720    -0.15817818     0.83396693
O       0.77053102     2.51384901     0.30819098    -0.45201810    -0.98403328     1.26381414
O       5.14557099     3.89075102     6.89775899    -4.76521109    -2.88833543     0.64723278
O       3.51737302     0.64441999     0.18007399     0.56594630     0.36009367     0.06256113
O       1.47625599     5.14059598     8.52393602    -0.76575759    -0.29005731     1.56818711
O       3.76081303     1.26854000     4.67692098    -0.07590285    -1.68981421    -0.67689664
O       0.79106601     4.79632601     4.49789100    -0.45747090     0.95769386     1.20734627
O       5.01451998     3.06208199     3.06361602     1.55424041    -0.27104142    -2.19746278
O       4.72238000     1.08611397     7.08322000     0.63530877    -0.24875072    -0.01141930
O       2.58469198     1.85727202     2.15643698     0.21197108     2.17292493     1.35016647
O       2.38574801     3.94226399     6.77249300     1.44279487    -1.22829408    -0.88727337
O       0.07563298     0.42713399     2.10590997    -0.31215647     0.46090384     0.12159394
O       2.20432498     1.39059399     7.05265700     0.90471472    -0.08297236    -1.17041416
O       2.50412803     4.76304902     2.24668499     0.48278033    -0.50655405     0.19014086
