# total energy = -4983.87657723 eV

CRYSTAL
PRIMVEC
        3.52789355     0.00000000     0.00000000
        1.51104831     3.18790933     0.00000000
       -2.51950433    -1.59397580     4.62679665
PRIMCOORD
6 1
Ti      1.13319712     2.39105470     1.15669911     0.00069831    -0.00069831     0.00000000
Ti      1.38624066    -0.79712097     3.47009725    -0.00069831     0.00069831     0.00000000
O       0.37779872     0.79697315     0.75366731     0.00081658     0.00089114    -2.22834560
O       2.14163893     0.79696046     3.87312910    -0.00081658    -0.00089114     2.22834560
O      -0.37776693    -0.79695308     3.06706549     0.00089114     0.00081658    -2.22834560
O       2.89720452     2.39088665     1.55973092    -0.00089114    -0.00081658     2.22834560
