# total energy = -19909.16703193 eV

CRYSTAL
PRIMVEC
        8.21003747     0.00000000     0.00000000
        0.00002748     4.20716716     0.00000000
        0.00000000     0.00000000    12.40406200
PRIMCOORD
24 1
Ti      2.97576013     2.49316344     4.60181853     0.27226296    -0.29109218     2.71929279
Ti      5.23430502     1.71400390     7.80224359    -0.27226296     0.29109218    -2.71929279
Ti      7.08063833     1.71400540     1.60016297     0.27144252     0.29144005    -2.71990137
Ti      1.12942688     2.49316213    10.80389933    -0.27144252    -0.29144005     2.71990137
Ti      2.97574645     0.38957992     1.60021272     0.27226296    -0.29109218    -2.71929279
Ti      5.23431876     3.81758754    10.80384959    -0.27226296     0.29109218     2.71929279
Ti      1.12941314     0.38957831     7.80219385    -0.27144252    -0.29144005    -2.71990137
Ti      7.08065201     3.81758916     4.60186827     0.27144252     0.29144005     2.71990137
O       2.59853847     1.48141514     6.32969790     1.34861199     1.11655313    -2.05548435
O       5.61152673     2.72575221     6.07436422    -1.34861199    -1.11655313     2.05548435
O       1.50654784     1.48143207     0.12770676    -1.34849500     1.11630476    -2.05542342
O       6.70351743     2.72573528    12.27635499     1.34849500    -1.11630476     2.05542342
O       5.61151299     0.62216863     0.12766653    -1.34861199    -1.11655313    -2.05548435
O       2.59855215     3.58499872    12.27639528     1.34861199     1.11655313     2.05548435
O       6.70350375     0.62215170     6.32973813     1.34849500    -1.11630476    -2.05542342
O       1.50656133     3.58501571     6.07432399    -1.34849500     1.11630476     2.05542342
O       0.29830648     2.55903760     3.35064659    -2.13544981     0.67386402     0.19968994
O       7.91175866     1.64812981     9.05341553     2.13544981    -0.67386402    -0.19968994
O       4.40333550     1.64809054     2.85142389    -2.13478415    -0.67358608    -0.20025070
O       3.80672965     2.55907687     9.55263804     2.13478415     0.67358608     0.20025070
O       0.29829281     0.45545396     2.85138428    -2.13544981     0.67386402    -0.19968994
O       7.91177240     3.75171339     9.55267765     2.13544981    -0.67386402     0.19968994
O       3.80671597     0.45549323     9.05345508     2.13478415     0.67358608    -0.20025070
O       4.40334924     3.75167411     3.35060698    -2.13478415    -0.67358608     0.20025070
