# total energy = -19958.25001881 eV

CRYSTAL
PRIMVEC
        7.60600008     0.00000000     0.00000000
        0.00000000     7.60600008     0.00000000
       -1.89786986    -1.89786986     4.85670466
PRIMCOORD
24 1
Ti      3.84096200     6.54359600     1.22037201     1.01964821     1.00608590     0.73478453
Ti      3.58067702     2.75381502     1.10281401     3.11125375    -0.33208098     2.36659489
Ti      0.09485698     6.77235901     1.31229502    -1.97354584    -0.28700541    -2.05929344
Ti      0.01585600     2.95185998     1.25604200    -3.96731778     0.39310151    -1.43844379
Ti      5.78186721     2.94777123     3.67545181    -0.40292467    -0.18805415    -0.33393423
Ti      5.70536320    -0.91363579     3.61410181    -1.37376767     1.07335549     0.60436579
Ti      1.94855425     2.66071321     3.62881680     1.00813507     1.27674911     0.38549721
Ti      1.82311522    -1.14651178     3.64006679     1.52622411     0.09500024     0.49748551
O       3.81225302     4.73349198     0.71105399    -0.22032254    -1.52739294    -0.70379450
O       3.78347700     0.85835699     0.85390899    -0.40147508     0.54882506    -0.67622764
O      -0.06133201     4.79476700     0.76899398     0.39960229     0.99478435     0.61830323
O      -0.11481501     1.04228598     0.72563600     0.79871169     0.18334569     1.66688588
O       5.52847221     4.90470622     4.08619279     0.56845698    -1.08384123     1.04828568
O       5.68481022     1.10445420     3.79319079     1.17265359    -2.12129536     2.03129464
O       1.84879122     4.68150021     4.04378781     0.81219148    -0.17151938    -0.35469075
O       2.07707421     0.76844723     4.06417082    -0.91214469     2.32797562    -0.28077691
O       4.04333224     2.64714924     3.10303681    -7.19705264     0.73114359    -0.06279999
O       3.82681323    -0.87839777     3.05272481    -0.88430375    -0.53112455     1.54510887
O      -0.00991980     3.17905022     3.15053079     1.90367994    -1.39839319     0.98779403
O       0.00897622    -0.89841877     3.36666482     0.90950237     0.08795027    -0.71587535
O       5.77348901     6.51050999     1.76826298     0.28531491     0.26502890    -2.22397343
O       5.66057100     2.91710901     1.79117302     1.78878552     0.56276481    -3.31519579
O       1.92475900     6.68126702     1.69170802    -1.11903861    -0.40413463    -0.67920266
O       1.79155302     3.19408298     1.62839598     3.14773309    -1.50126846     0.35780822
