# total energy = -19914.42120612 eV

CRYSTAL
PRIMVEC
        6.46969063     0.00000000     0.00000000
        0.00003546     6.88570729     0.00000000
        0.00000000     0.00000000    11.57932363
PRIMCOORD
24 1
Ti      2.34497269     4.08046377     4.29584656     0.04899856    -0.89819697     0.64636683
Ti      4.12475340     2.80524359     7.28347740    -0.04899856     0.89819697    -0.64636683
Ti      5.57970475     2.80524595     1.49376915     0.04903584     0.89852247    -0.64608453
Ti      0.89002134     4.08046167    10.08555494    -0.04903584    -0.89852247     0.64608453
Ti      2.34495510     0.63761026     1.49381558     0.04899856    -0.89819697    -0.64636683
Ti      4.12477099     6.24809730    10.08550851    -0.04899856     0.89819697     0.64636683
Ti      0.89000375     0.63760769     7.28343096    -0.04903584    -0.89852247    -0.64608453
Ti      5.57972235     6.24809987     4.29589300     0.04903584     0.89852247     0.64608453
O       2.04771042     2.42457466     5.90884034     1.41584173     1.31391674     0.00266289
O       4.42201567     4.46113277     5.67048362    -1.41584173    -1.31391674    -0.00266289
O       1.18719770     2.42460239     0.11921563    -1.41488682     1.31396584     0.00170130
O       5.28252846     4.46110504    11.46010800     1.41488682    -1.31396584    -0.00170130
O       4.42199808     1.01827906     0.11917806    -1.41584173    -1.31391674     0.00266289
O       2.04772802     5.86742831    11.46014557     1.41584173     1.31391674    -0.00266289
O       5.28251086     1.01825132     5.90887791     1.41488682    -1.31396584     0.00170130
O       1.18721516     5.86745610     5.67044605    -1.41488682     1.31396584    -0.00170130
O       0.23508037     4.18827752     3.12786426     0.50020908    -0.28864757     0.33139861
O       6.23464572     2.69742984     8.45145970    -0.50020908     0.28864757    -0.33139861
O       3.46993087     2.69736567     2.66183453     0.50074721     0.28910780    -0.33184547
O       2.99979522     4.18834170     8.91748923    -0.50074721    -0.28910780     0.33184547
O       0.23506277     0.74542381     2.66179755     0.50020908    -0.28864757    -0.33139861
O       6.23466332     6.14028355     8.91752621    -0.50020908     0.28864757     0.33139861
O       2.99977762     0.74548798     8.45149661    -0.50074721    -0.28910780    -0.33184547
O       3.46994847     6.14021938     3.12782729     0.50074721     0.28910780     0.33184547
