# total energy = -19075.02370000 eV

CRYSTAL
PRIMVEC
        7.60600008     0.00000000     0.00000000
        0.00000000     7.60600008     0.00000000
       -1.89786986    -1.89786986     4.85670466
PRIMCOORD
22 1
Ti      3.84855898     6.39312202     1.27707700     0.66593782     0.79587808     0.37672306
Ti      3.69737002     2.74153398     1.20305400     1.46836707    -1.20607434    -0.20547673
Ti      0.12053001     6.81331198     1.05072599    -0.40586010    -0.35097499    -0.46141986
Ti      0.00404403     2.98347800     1.14545099    -0.96289032     0.25055615    -0.20201088
Ti      5.62898123     2.96616321     3.52039484    -0.35106987     0.91372695    -0.24973057
Ti      6.12350922    -0.58304776     3.60777481    -0.36070560    -2.62611880    -0.70069709
Ti      1.87760624     2.67170222     3.64194479     0.09488505    -0.29597676    -0.25045022
Ti      1.37410721    -1.26589575     3.90551681     0.96270546     1.48144859    -1.02003696
O       4.01807302     4.50265698     0.72080302    -0.08449548     0.73890601     0.67560389
O       3.75020397     0.76263602     0.88920400    -0.50037697    -0.34532165     0.85293268
O      -0.13694398     4.94045601     0.60456098     1.11853956    -0.61051973     0.87981049
O       0.34283701     1.12521102     0.66230200     0.28380824     0.27322481     1.45913758
O       5.68012124     5.03447324     3.96772779     0.26181013     0.02604683    -0.83111660
O       5.40847222     1.08173625     3.99204380     0.83946035     0.18571085    -0.44332031
O       1.86807523     4.47840124     4.29755280    -0.81465125     1.38594673    -1.13668899
O       1.77757221     0.62022722     4.02205482    -0.41491193     1.59048372     0.11093646
O       3.76224022     3.05907621     3.28708281     0.04031003    -0.84245492    -0.77035370
O      -0.04833378     3.04504222     2.98894281     0.46650679    -0.54024348     2.40020668
O       5.91398498     6.85392798     1.64233700    -0.40589044    -0.18657320     0.67265200
O       5.69132403     2.70375099     1.54756098    -0.23541929     0.03106177     0.19520542
O       2.14870401     6.40568400     2.10654298    -0.80583211    -0.30862711    -0.26732155
O       1.95463799     3.08540098     1.73528698    -0.86022716    -0.36010576    -1.08458530
