# total energy = -19073.20202724 eV

CRYSTAL
PRIMVEC
        5.17600016     0.00000000     0.00000000
        0.00000000     5.50899976     0.00000000
        0.00000000     0.00000000     9.26300011
PRIMCOORD
22 1
Ti      1.61659099     3.21711600     3.47825502     1.02476394     1.92932799    -0.84115445
Ti      3.68341498     2.12383898     5.87903299    -1.19687211     0.90940287    -1.42847999
Ti      4.33872602     2.26828701     1.27703800     0.32344618     0.50929690    -0.47470475
Ti      0.97489499     3.22271602     8.00069000    -0.92012694    -1.08252971     2.07278171
Ti      1.76618501     0.61284700     1.30477102     0.19225817    -1.08552247    -0.44176248
Ti      3.24660398     5.09237401     8.12122600    -1.45596227     0.23242318     1.82402071
Ti      1.40392301     0.25569400     5.83091802    -0.14873272    -0.02746736    -0.75146611
Ti      4.20309101     5.03580899     3.37697298    -0.70439562    -0.76790550     0.46803274
O       3.54846102     3.50889698     4.27406098    -1.67549856    -1.95535373     2.30092632
O       1.07433502     1.91071898     0.09215998    -1.56626958     0.48132946    -0.76154870
O       4.36850600     3.71705599     8.53211901     1.14185382    -1.03816762     0.10809796
O       3.50545002     0.78060100     0.45380198     0.06777662    -0.33529923    -2.12366901
O       1.79159298     4.56172502     9.20477299    -0.54483933     0.15983603    -0.58256643
O       3.28753002     0.72576797     4.75268101     0.11405906    -0.48112017    -0.29947732
O       0.55189398     4.57041501     4.60083301     1.04926965     0.58707820     0.65095240
O       0.05302801     3.67805097     2.31854900    -0.38356708    -0.85089045    -0.64587601
O       0.18548298     1.61618897     6.47376598    -0.15879293     0.23531645     0.03154308
O       2.51859801     2.06480698     2.24915799     0.94137198     0.52208763     0.52212491
O       2.13329299     3.98605198     6.83116198     1.57073713     0.35528057    -1.93219785
O       0.01629802     0.92744002     2.15503302     0.53742915    -0.69782800     2.10047379
O       2.55269200     1.06772798     7.13400102     1.40631013     1.43478794     0.21806357
O       2.43031500     4.71651301     2.53101901     0.38578055     0.96591676    -0.01411382
