# total energy = -19900.48125947 eV

CRYSTAL
PRIMVEC
        7.40132581     0.00000000     0.00000000
        0.00003442     6.44502203     0.00000000
        0.00000000     0.00000000    12.16413781
PRIMCOORD
24 1
Ti      2.68264500     3.81931395     4.51280852     0.38260343    -0.94650853     1.01024671
Ti      4.71871529     2.62570780     7.65132977    -0.38260343     0.94650853    -1.01024671
Ti      6.38317967     2.62570988     1.56921202     0.38187118     0.94663194    -1.01064909
Ti      1.01818062     3.81931208    10.59492641    -0.38187118    -0.94663194     1.01064909
Ti      2.68262807     0.59680308     1.56926079     0.38260343    -0.94650853    -1.01024671
Ti      4.71873222     5.84821888    10.59487763    -0.38260343     0.94650853     1.01024671
Ti      1.01816369     0.59680072     7.65128099    -0.38187118    -0.94663194    -1.01064909
Ti      6.38319660     5.84822117     4.51285730     0.38187118     0.94663194     1.01064909
O       2.34257849     2.26940172     6.20726660     0.91122038     1.44018546    -0.91530844
O       5.05878180     4.17562003     5.95687169    -0.91122038    -1.44018546     0.91530844
O       1.35815191     2.26942777     0.12523663    -0.91159499     1.44004739    -0.91554832
O       6.04320845     4.17559405    12.03890131     0.91159499    -1.44004739     0.91554832
O       5.05876487     0.95310895     0.12519715    -0.91122038    -1.44018546    -0.91530844
O       2.34259542     5.49191281    12.03894080     0.91122038     1.44018546     0.91530844
O       6.04319145     0.95308297     6.20730609     0.91159499    -1.44004739    -0.91554832
O       1.35816870     5.49193885     5.95683220    -0.91159499     1.44004739     0.91554832
O       0.26892809     3.92022778     3.28583721    -0.82432118     0.08771193    -0.01620001
O       7.13243220     2.52479398     8.87830108     0.82432118    -0.08771193     0.01620001
O       3.96959840     2.52473408     2.79627063    -0.82418336    -0.08748336     0.01631134
O       3.43176189     3.92028767     9.36786745     0.82418336     0.08748336    -0.01631134
O       0.26891109     0.69771669     2.79623176    -0.82432118     0.08771193     0.01620001
O       7.13244920     5.74730506     9.36790632     0.82432118    -0.08771193    -0.01620001
O       3.43174489     0.69777659     8.87833988     0.82418336     0.08748336     0.01631134
O       3.96961540     5.74724516     3.28579834    -0.82418336    -0.08748336    -0.01631134
