# total energy = -19518.22809029 eV

CRYSTAL
PRIMVEC
        5.93400000     0.00000000     0.00000000
        0.00000000     9.29699974     0.00000000
        0.00000000     0.00000000     4.64899994
PRIMCOORD
23 1
Ti      4.47784799     7.05457199     2.19904300    -0.34953466     0.94056002    -0.10185146
Ti      4.48398300     2.31946300     2.27109001     0.44716231    -0.68245356     0.60365102
Ti      1.35695599     7.02972299     2.27867402     0.42217324     0.15478304    -0.53637808
Ti      1.52908402     2.33249499     2.44659101    -0.55671603    -1.16540153    -0.42119956
Ti      2.95208800     4.53297201     0.16787201     0.69087933    -0.50787200     0.14359642
Ti      2.97714602     0.05710500     4.61266002     0.00827484     0.02720665     1.08442924
Ti      5.93223202     4.61109302     0.10786903    -0.49566285    -0.40661497    -0.76355313
Ti      0.04084301     9.28126101     4.52279101    -0.34484960     0.73108394     0.57869717
O       4.50982802     5.54790302     0.97362698    -0.85249996     0.08712058    -0.46726603
O       4.41947302     0.94424198     0.93973799     0.09262994    -0.33079826    -0.59616423
O       1.48961798     5.55009403     0.92503200     0.26046699     0.16859244    -0.31614296
O       1.54314002     0.92414001     0.92683199    -0.65107941    -0.20328100    -0.54005399
O       4.37740898     8.47960002     3.69012802     0.77366014    -1.26854626    -0.60209705
O       4.44383401     3.67796498     3.76921001    -0.04505140     0.89749249     0.46509731
O       1.42334303     8.33546600     3.61140898     0.60084698     0.57442143     1.02004339
O       1.51474601     3.63130801     3.87138202     0.00705897     0.78626086    -0.39763976
O       2.97761800     1.40216202     3.27755899    -0.05619122     0.46295455    -0.54925854
O       5.86488199     6.14782899     3.15168498     0.13474771    -0.75920874     0.77199844
O       0.00242601     1.29817699     3.14802900     0.15865872     0.84457479     0.22820426
O       2.92459899     7.85026100     1.34445101     0.34872399    -0.67496831     0.54491389
O       2.98233799     3.27828799     1.51783699    -0.28173053     0.17156284    -0.18152252
O       0.01681201     7.90497100     1.29837798    -0.46211328    -0.10176559     0.05678438
O       0.02560498     3.24707198     1.45884500     0.15014580     0.25429685    -0.02428845
