# total energy = -19517.05944042 eV

CRYSTAL
PRIMVEC
        5.17600016     0.00000000     0.00000000
        0.00000000     5.50899976     0.00000000
        0.00000000     0.00000000     9.26300011
PRIMCOORD
23 1
Ti      1.84190000     3.21211998     3.37783898     0.25133777    -0.19532884     2.24490299
Ti      3.28890900     2.26609902     5.92487101     0.95542666     0.46495615    -2.94963029
Ti      4.35531202     2.02568601     1.40164898     1.06744067     0.50524227     0.13872881
Ti      0.95046600     3.29741399     7.71561402    -2.77025773    -0.18587437     1.91867462
Ti      2.07110599     0.20541999     1.32007102    -0.28910523     0.05147453    -0.10521138
Ti      3.27367399     5.21822401     7.96172499     0.30065463     0.58504163    -0.60568682
Ti      0.69634403     0.58768002     5.90326698    -0.77393088     0.02823304    -2.28021891
Ti      4.48930801     4.95093901     3.31615999     0.68871857    -0.35392379     3.07093832
O       1.66129398     1.91548602     4.75953100    -0.69481852     0.09938346     0.77778419
O       3.56856902     3.53693401     4.48347198    -0.51139955    -0.01113365     0.16605553
O       0.07924699     2.91400200     0.12952799    -0.11714336    -0.58073092    -0.93203733
O       3.47948197     0.88095799     0.11585002    -0.14557566     0.10110327     0.60913185
O       1.80055999     4.59784200     9.05070298     0.97970740     0.26703744     0.02350915
O       4.15367702     0.71520798     5.05716002     0.04693653     0.15738011    -1.23130202
O       0.88991299     4.79526300     4.43828098     0.82890571    -0.10461000     0.20399166
O       0.13341199     3.41469898     2.54296397     0.63792436    -0.88665271     0.09836324
O       4.77736898     2.00043003     7.02417801     1.79303402     0.67575044    -0.13253939
O       2.65062900     1.80852400     2.33777100    -0.01685950     0.20027590    -0.68503932
O       2.48151602     3.78489599     6.89269799     1.29608227     0.05671573    -0.79050036
O       0.24593402     0.55283899     1.96989099     0.25464601     0.52922064    -0.19262918
O       0.01233697     4.83582999     7.15947201    -1.25815669    -0.83775699     0.95105810
O       2.30527798     1.13040701     7.10778902    -1.48801828    -0.84279096     0.35207646
O       2.97519500     4.42642402     2.26714002    -1.03554869     0.27698762    -0.65041941
