# total energy = -19076.29749376 eV

CRYSTAL
PRIMVEC
        7.60600008     0.00000000     0.00000000
        0.00000000     7.60600008     0.00000000
       -1.89786986    -1.89786986     4.85670466
PRIMCOORD
22 1
Ti      3.80122502     6.58696102     1.25728398     0.04408492     0.44194786    -0.95259665
Ti      3.78188899     2.86828998     1.15833799     0.12882080    -0.65082693     0.27901390
Ti      0.15148598     6.64885899     1.07426199    -0.05661906     1.14348647     0.18434071
Ti      0.02247903     2.94504698     1.13786301     0.07315048    -1.39911181    -0.03945308
Ti      5.63945423     2.92908223     3.49321582    -0.82515267     0.05161877     0.19518665
Ti      6.06760324    -0.83893777     3.61526880    -0.28752889    -0.74896366     1.64072387
Ti      1.82700023     2.77765620     3.63365380     0.94685408    -0.59689468    -0.18519329
Ti      1.46100124    -1.12639775     3.88052382     1.30436534     0.94081405    -0.70568220
O       3.55964799     4.73493198     0.77486700     0.25599095    -0.13508530     0.25279738
O       3.97932502     0.96013698     0.85336399    -1.00837238    -1.20469623     0.38851414
O       0.11420402     4.80829801     0.67136898     0.19243146     0.27819604     0.37268308
O       0.00542999     1.05113599     0.76864303     0.27011866    -0.53711573     0.23805982
O       5.40959424     4.85909723     4.04507979     0.78812466    -0.08662667    -0.83035967
O       5.69270724     0.98736421     3.99105180     0.45222610     0.09892015    -0.42686525
O       2.19485721     4.68141221     4.21493479    -1.21902602     0.92999895    -0.75808542
O       1.98613621     0.82956122     4.05379979    -1.05124657     0.41430900     0.20766139
O       3.73404624     2.71764120     3.23968483     1.30418511     0.37479036    -0.16203972
O      -0.01564280     2.84396322     3.12325879    -0.06364845     0.52203621     0.55555261
O       5.60681098     6.60097998     1.83653198     0.57203853    -0.17182740    -0.32440958
O       5.70243902     2.96438100     1.53679699    -0.13750728     0.42199635     0.55637510
O       1.98178298     6.65466300     1.98504801    -0.62560182    -0.29193087     0.06266141
O       1.94796501     2.79510900     1.67333800    -1.05768770     0.20496405    -0.54888548
