# total energy = -19954.33919942 eV

CRYSTAL
PRIMVEC
        5.43712780     0.00000000     0.00000000
        0.00002528     4.73461234     0.00000000
        0.00000000     0.00000000     8.93596277
PRIMCOORD
24 1
Ti      1.97071229     2.80572679     3.31517857    -0.38109908     1.33605060    -2.26501983
Ti      3.46644085     1.92888534     5.62078456     0.38109908    -1.33605060     2.26501983
Ti      4.68918199     1.92888687     1.15276729    -0.37871952    -1.33595753     2.26622362
Ti      0.74797115     2.80572541     7.78319594     0.37871952     1.33595753    -2.26622362
Ti      1.97069985     0.43842072     1.15280312    -0.38126723     1.33690472     2.26488330
Ti      3.46645329     4.29619156     7.78316011     0.38126723    -1.33690472    -2.26488330
Ti      0.74795871     0.43841899     5.62074873     0.37878663     1.33678439     2.26623570
Ti      4.68919443     4.29619324     3.31521440    -0.37878663    -1.33678439    -2.26623570
O       1.72089420     1.66713742     4.55995354     0.29645885    -1.36413837     1.33744002
O       3.71625894     3.06747471     4.37600959    -0.29645885     1.36413837    -1.33744002
O       0.99771928     1.66715655     0.09200076    -0.29704557    -1.36468576     1.33794833
O       4.43943390     3.06745563     8.84396212     0.29704557     1.36468576    -1.33794833
O       3.71624650     0.70016850     0.09197175    -0.29673447     1.36414428     1.33742588
O       1.72090663     4.03444364     8.84399113     0.29673447    -1.36414428    -1.33742588
O       4.43942141     0.70014941     4.55998255     0.29668562     1.36475518     1.33767502
O       0.99773162     4.03446277     4.37598058    -0.29668562    -1.36475518    -1.33767502
O       0.19755871     2.87985963     2.41382657     0.99975224    -0.39893766     0.50297481
O       5.23959443     1.85475250     6.52213656    -0.99975224     0.39893766    -0.50297481
O       2.91612805     1.85470850     2.05418342     0.99982243     0.39874585    -0.50265445
O       2.52102508     2.87990364     6.88177955    -0.99982243    -0.39874585     0.50265445
O       0.19754622     0.51255342     2.05415487     0.99959000    -0.39883687    -0.50240094
O       5.23960692     4.22205872     6.88180811    -0.99959000     0.39883687     0.50240094
O       2.52101259     0.51259742     6.52216506    -0.99991319    -0.39893637    -0.50330829
O       2.91614054     4.22201471     2.41379801     0.99991319     0.39893637     0.50330829
