# total energy = -19518.12791915 eV

CRYSTAL
PRIMVEC
        5.93400000     0.00000000     0.00000000
        0.00000000     9.29699974     0.00000000
        0.00000000     0.00000000     4.64899994
PRIMCOORD
23 1
Ti      4.47273799     6.92480302     2.31145602     0.40134112     1.06735634    -0.05190931
Ti      4.43944300     2.31904802     2.33470002     0.30362220    -0.11195410     0.35272077
Ti      1.47414902     7.00462401     2.34120901    -0.20683761     0.88647248    -0.15141309
Ti      1.45926098     2.36609198     2.31740402     0.00034890    -0.65841888    -0.05107627
Ti      2.96859600     4.64974900     0.03626499    -0.05717801    -0.89743566     0.81951193
Ti      2.99909502     0.01680598     4.63628302    -0.49029978    -0.71453400    -0.36341888
Ti      0.01809299     4.65044100     0.00341399    -0.16618871    -0.18790709    -0.09919011
Ti      5.93282798     9.28227200     0.05755401     0.42115765     0.00091377    -0.76608490
O       4.37939498     5.59418597     0.86351302     0.29209645     0.01471957    -0.10653627
O       4.41093400     0.89202700     0.81972699     0.18337552     0.06033507     0.69010080
O       1.50385999     5.58739102     0.92952498     0.18436488    -0.41368011    -0.49302361
O       1.47084600     0.93372601     0.96272101     0.19287729    -0.23545297    -0.51316744
O       4.46882202     8.33289002     3.62056502    -0.58152359     0.17539198     0.99767607
O       4.47253902     3.69840800     3.66721797    -0.33171794     1.31856786     0.67919778
O       1.46463399     8.35319598     3.71215502     0.41283885     0.16760745     0.29120762
O       1.44367798     3.72477801     3.82081098     0.33182155    -0.02045185    -1.06188014
O       2.99650301     1.50088400     3.24448198    -0.94735159    -0.63026092     0.07301113
O       0.03392301     6.04371602     3.25904599    -0.32932527     0.01871224    -0.48469555
O       5.86283402     1.31209298     3.25786000     0.70724955     1.20558249    -0.96977368
O       2.95845802     7.86038501     1.37366402     0.25041474    -0.30443287     0.49468069
O       3.01064601     3.26219698     1.34011599    -0.78146190    -0.35534459     0.53762276
O       0.06143901     7.87676701     1.40524199    -0.56730024    -0.18843314    -0.18712984
O       5.86920601     3.26133701     1.38607101     0.77767646    -0.19735307     0.36356929
