# total energy = -19518.89688164 eV

CRYSTAL
PRIMVEC
        7.60600008     0.00000000     0.00000000
        0.00000000     7.60600008     0.00000000
       -1.89786986    -1.89786986     4.85670466
PRIMCOORD
23 1
Ti      3.75897398     6.66831303     1.11560000     1.68515203    -0.07251773     1.00143785
Ti      3.83406201     2.82649402     1.21109702    -0.02992405     0.00081710     1.34888144
Ti      0.03760101     6.67612903     1.23540800    -1.65335082     0.74881813    -0.60496434
Ti      0.00064898     2.90370299     1.11905298     0.19794236    -1.10125763     1.18919093
Ti      5.67482920     2.91499320     3.68960381    -1.08677614     0.25308458    -0.38999844
Ti      5.61997622    -0.92771477     3.57411681     0.06008850    -0.17358192     0.39885127
Ti      1.99995022     2.81698323     3.72890179     1.19520423    -0.59107112    -0.72344185
Ti      1.88789821    -0.98693478     3.59150880     0.23375167     0.23732525     0.63348226
O       3.98306800     4.71896099     0.80660001    -0.86594709    -0.25627352     0.35466170
O       3.84693001     0.95997098     0.84854900    -0.24220726    -0.64820569    -0.68851700
O      -0.12361898     4.76143302     0.75564601     0.97799041     1.20881823     1.04656022
O      -0.07252898     0.96481200     0.77619100     0.53681903    -0.73434719     0.21758740
O       5.58868221     4.81000022     4.05574081     0.75276863    -0.55368701    -0.09890189
O       5.57287320     1.01575721     4.16908280     0.75527392    -0.95175461    -2.41904465
O       1.98879522     4.69259923     4.06223583    -0.82181641     1.13733536    -0.55307303
O       1.88390721     0.90900724     4.12054481    -0.43510564    -0.08454227    -0.57808962
O       3.85065621     2.79662620     3.39219281    -0.79525356     0.16711585    -1.60788984
O       3.77110822    -0.96478877     3.15397081    -0.36790289     0.22350171     0.39410167
O      -0.05245480    -1.00163876     3.21236081     1.18331210     0.21152628    -0.04752532
O       5.69370299     6.62240399     1.60607999     0.01076727     0.34645525     0.26843715
O       5.78099099     2.77363900     1.70623198     0.00141231     0.26157462     0.32261597
O       1.94636600     6.55980798     1.57954498    -1.28695254     0.07624044     0.21928973
O       1.85535698     2.80969000     1.69261497    -0.00524660     0.29462642     0.31634839
