# total energy = -19518.08975857 eV

CRYSTAL
PRIMVEC
        7.60600008     0.00000000     0.00000000
        0.00000000     7.60600008     0.00000000
       -1.89786986    -1.89786986     4.85670466
PRIMCOORD
23 1
Ti      3.79595098     6.64806099     1.27767402     0.26481087    -0.63205221     0.64221013
Ti      3.64162098     2.70978901     1.11303301     0.55293368     0.91349247     2.85304034
Ti      0.04481798     6.71917199     1.14847100    -0.85709941     0.54167610     1.17347763
Ti     -0.04016101     2.97776902     1.04697200    -0.27847269    -1.03743537    -0.51751389
Ti      5.67854021     3.04985524     3.53608679    -1.72026380    -1.74235421    -0.45144912
Ti      5.76054025    -0.88748878     3.56435380     0.15692580     0.90760130     1.03348821
Ti      1.92291921     2.71039423     3.80764781     1.66060004     0.61598332    -1.24963039
Ti      1.92184223    -1.10359577     3.66376483     0.09421528     0.17829604    -0.11282853
O       3.71255698     4.58477301     0.85986498    -0.67667784     0.97641150     0.35929637
O       3.95478898     0.89458398     0.93390498    -0.63676916    -0.63517199    -0.26913109
O      -0.03080801     4.77572001     0.81037601     0.65690707     2.27688033    -0.34776214
O      -0.17148698     1.06333300     0.69610299     0.48190050    -0.77429366    -0.42565760
O       5.94656421     4.80722622     4.17962480     0.33652230     0.04993984    -2.02576856
O       5.82777524     1.18048723     3.87248382     0.37332560    -1.34308694     0.22980863
O       1.90740823     4.66839720     4.26828184    -0.76409486    -0.10317404    -1.28623494
O       2.01508723     0.81702020     4.10840580    -0.81039351    -0.19727645    -0.46413983
O       3.73397125     2.77211820     3.39833381     0.59303211     0.62459755    -1.25179500
O       3.79228023    -1.25034678     3.32947081     0.21409250     0.65312241    -1.07374476
O       0.02564324    -0.85719676     3.32306580     0.12523077    -0.43487244    -0.22110287
O       5.74537498     6.67933298     1.60642100    -0.52747744    -0.39307862     0.53290658
O       5.75565700     3.01920498     1.43356398    -1.08549033    -0.22466385     2.20670873
O       1.85446500     6.73132502     1.65083802     1.12219567    -0.21845797     0.66409177
O       1.70744300     2.74577602     1.78783100     0.72404734    -0.00208362     0.00173010
