# total energy = -19904.66978804 eV

CRYSTAL
PRIMVEC
        7.80503461     0.00000000     0.00000000
        0.00002457     3.15089966     0.00000000
        0.00000000     0.00000000    12.08024758
PRIMCOORD
24 1
Ti      2.82896432     1.86722018     4.48168571    -0.32324487     0.24644650     1.50299367
Ti      4.97609509     1.28367937     7.59856198     0.32324487    -0.24644650    -1.50299367
Ti      6.73134841     1.28368044     1.55838987    -0.32277744    -0.24671004    -1.50195161
Ti      1.07371099     1.86721927    10.52185793     0.32277744     0.24671004     1.50195161
Ti      2.82895214     0.29177040     1.55843830    -0.32325412     0.24595439    -1.50303404
Ti      4.97610727     2.85912925    10.52180950     0.32325412    -0.24595439     1.50303404
Ti      1.07369882     0.29176928     7.59851355     0.32302941     0.24621561    -1.50341842
Ti      6.73136059     2.85913038     4.48173414    -0.32302941    -0.24621561     1.50341842
O       2.47035149     1.10948531     6.16445786     4.34783270    -0.09113638     0.01508313
O       5.33470797     2.04141424     5.91578983    -4.34783270     0.09113638    -0.01508313
O       1.43222893     1.10949800     0.12437292    -4.34735191    -0.09113124     0.01378189
O       6.37283059     2.04140154    11.95587444     4.34735191     0.09113124    -0.01378189
O       5.33469579     0.46596441     0.12433374    -4.34476075     0.09152822     0.01622290
O       2.47036361     2.68493514    11.95591362     4.34476075    -0.09152822    -0.01622290
O       6.37281841     0.46595172     6.16449710     4.34565035     0.09175731     0.01684716
O       1.43224094     2.68494789     5.91575059    -4.34565035    -0.09175731    -0.01684716
O       0.28358993     1.91655578     3.26317623    -0.29864428     0.02749847     1.13665865
O       7.52146948     1.23434377     8.81707146     0.29864428    -0.02749847    -1.13665865
O       4.18611751     1.23431448     2.77698597    -0.29857846    -0.02734061    -1.13814577
O       3.61894195     1.91658512     9.30326150     0.29857846     0.02734061     1.13814577
O       0.28357775     0.34110595     2.77694739    -0.29927163     0.02780495    -1.13967841
O       7.52148166     2.80979360     9.30330008     0.29927163    -0.02780495     1.13967841
O       3.61892977     0.34113524     8.81710993     0.29883018     0.02756404    -1.13818434
O       4.18612969     2.80976431     3.26313771    -0.29883018    -0.02756404     1.13818434
