# total energy = -19956.64369772 eV

CRYSTAL
PRIMVEC
        5.49315252     0.00000000     0.00000000
        0.58320959     5.81721341     0.00000000
        0.00000000     0.00000000     9.84387603
PRIMCOORD
24 1
Ti      2.33661311     3.44727531     3.65200788     0.23884272    -1.01811943     0.64602950
Ti      3.73974917     2.36993814     6.19186848    -0.23884272     1.01811943    -0.64602950
Ti      4.97508969     2.36994012     1.26989098    -0.32269594    -0.05236105    -0.07642581
Ti      1.10127261     3.44727362     8.57398555     0.32269594     0.05236105     0.07642581
Ti      2.04500842     0.53866866     1.26993047     0.23884272    -1.01811943    -0.64602950
Ti      4.03135387     5.27854502     8.57394606    -0.23884272     1.01811943     0.64602950
Ti      0.80966785     0.53866652     6.19182905     0.32269594     0.05236105    -0.07642581
Ti      5.26669439     5.27854711     3.65204737    -0.32269594    -0.05236105     0.07642581
O       1.94397553     2.04833975     5.02325471     0.95640651     1.05754500    -0.27193051
O       4.13238675     3.76887377     4.82062165    -0.95640651    -1.05754500     0.27193051
O       1.21335132     2.04836327     0.10134823    -0.56003404     0.31408865     0.36123807
O       4.86301102     3.76885029     9.74252791     0.56003404    -0.31408865    -0.36123807
O       3.84078206     0.86026689     0.10131631    -0.95640651    -1.05754500    -0.27193051
O       2.23558023     4.95694662     9.74255983     0.95640651     1.05754500     0.27193051
O       4.57140633     0.86024342     5.02328669     0.56003404    -0.31408865     0.36123807
O       1.50495590     4.95697010     4.82058973    -0.56003404     0.31408865    -0.36123807
O       0.55432005     3.53835909     2.65907656     0.14891964     0.24915310     0.40624396
O       5.52204218     2.27885443     7.18479980    -0.14891964    -0.24915310    -0.40624396
O       3.17462922     2.27880025     2.26289292     0.49780612     0.47247946    -0.04810819
O       2.90173306     3.53841320     7.58098333    -0.49780612    -0.47247946     0.04810819
O       0.26271536     0.62975221     2.26286145     0.14891964     0.24915310    -0.40624396
O       5.81364687     5.18746125     7.58101474    -0.14891964    -0.24915310     0.40624396
O       2.61012837     0.62980638     7.18483121    -0.49780612    -0.47247946    -0.04810819
O       3.46623392     5.18740713     2.65904515     0.49780612     0.47247946     0.04810819
