# total energy = -4986.85389458 eV

CRYSTAL
PRIMVEC
        3.52612453     0.00000000     0.00000000
        0.86796127     3.41763039     0.00000000
       -2.19707501    -1.70884017     4.53624891
PRIMCOORD
6 1
Ti      0.65085645     2.56335367     1.13406215     0.00124647    -0.00085464     0.00120688
Ti      1.54615451    -0.85456332     3.40218646    -0.00124647     0.00085464    -0.00120688
O       0.21702729     0.85440273     0.73891783     0.00043632     0.00163805     0.59724280
O       1.97998351     0.85438754     3.79733079    -0.00043632    -0.00163805    -0.59724280
O      -0.21700210    -0.85438313     3.00704214     0.00163728     0.00044686     0.60093542
O       2.41401289     2.56317335     1.52920648    -0.00163728    -0.00044686    -0.60093542
