# total energy = -19958.57799695 eV

CRYSTAL
PRIMVEC
        5.43623906     0.00000000     0.00000000
        0.28913922     5.77857305     0.00000000
        0.00000000     0.00000000     9.73271495
PRIMCOORD
24 1
Ti      2.14171875     3.42437689     3.61076783     0.15450999    -0.65853175     0.47595945
Ti      3.58365930     2.35419594     6.12194724    -0.15450999     0.65853175    -0.47595945
Ti      4.80620060     2.35419791     1.25555081    -0.15249681     0.12550536    -0.17548171
Ti      0.91917752     3.42437514     8.47716437     0.15249681    -0.12550536     0.17548171
Ti      1.99714926     0.53509059     1.25558982     0.15450999    -0.65853175    -0.47595945
Ti      3.72822880     5.24348241     8.47712536    -0.15450999     0.65853175     0.47595945
Ti      0.77460801     0.53508845     6.12190817     0.15249681    -0.12550536    -0.17548171
Ti      4.95077010     5.24348455     3.61080689    -0.15249681     0.12550536     0.17548171
O       1.82241474     2.03473372     4.96652994     0.76029426     0.78015398    -0.11763573
O       3.90296332     3.74383911     4.76618512    -0.76029426    -0.78015398     0.11763573
O       1.09935929     2.03475704     0.10020375    -0.56718968     0.41385957     0.19728519
O       4.62601882     3.74381585     9.63251104     0.56718968    -0.41385957    -0.19728519
O       3.75839382     0.85455264     0.10017219    -0.76029426    -0.78015398    -0.11763573
O       1.96698423     4.92402019     9.63254260     0.76029426     0.78015398     0.11763573
O       4.48144932     0.85452938     4.96656156     0.56718968    -0.41385957     0.19728519
O       1.24392868     4.92404356     4.76615350    -0.56718968     0.41385957    -0.19728519
O       0.37338199     3.51485557     2.62904916     0.15064536     0.03316724     0.23851182
O       5.35199612     2.26371726     7.10366596    -0.15064536    -0.03316724    -0.23851182
O       3.02890702     2.26366342     2.23733932     0.34112741     0.28244299    -0.10539599
O       2.69647109     3.51490941     7.49537558    -0.34112741    -0.28244299     0.10539599
O       0.22881250     0.62556910     2.23730826     0.15064536     0.03316724    -0.23851182
O       5.49656561     5.15300373     7.49540664    -0.15064536    -0.03316724     0.23851182
O       2.55190159     0.62562294     7.10369696    -0.34112741    -0.28244299    -0.10539599
O       3.17347652     5.15294989     2.62901805     0.34112741     0.28244299     0.10539599
