# total energy = -78964.84572520 eV

CRYSTAL
PRIMVEC
       10.35150501     0.00002646     0.00000000
        0.00002858    11.01713167     0.00000000
        0.00000000     0.00000000     9.26345890
PRIMCOORD
94 1
Ti      7.17771038     8.68610069     3.27677295     0.01021397     0.01185099    -0.02218966
Ti      7.07742240     3.32127667     3.44759464    -0.01842685     0.01827618     0.04874402
Ti      1.80015500     8.77657944     3.47716242    -0.00089269    -0.04260242    -0.00125753
Ti      1.83142288     3.41021437     3.49445088     0.01086214    -0.03874757    -0.03057968
Ti      8.36493427     7.68359485     5.74149092     0.01524536    -0.02670992     0.03568204
Ti      8.52197883     2.19417393     5.81837945     0.05380138     0.02364927     0.04939862
Ti      3.34427725     7.63704457     5.80188198     0.01616376     0.05025429    -0.04646705
Ti      3.19599465     2.23224863     5.81100692    -0.04375993     0.01065646     0.07059121
Ti      9.74996595     7.68359699     1.10961054    -0.01446837    -0.02663021     0.03566147
Ti      9.59344041     2.19432808     1.18661487    -0.05290098     0.02352946     0.04998895
Ti      4.41961922     7.63669135     1.17026768    -0.01599227     0.05062401    -0.04554274
Ti      4.56747586     2.23240861     1.17926177     0.04320483     0.01071019     0.07104526
Ti      5.96327748     8.77659970     8.10893924     0.00268295    -0.04411603    -0.00143288
Ti      5.93216052     3.41035832     8.12620157    -0.01136788    -0.03869563    -0.03069898
Ti      0.58611247     8.68607520     7.90844725    -0.01006690     0.01168027    -0.02226139
Ti      0.68657422     3.32132752     8.07945855     0.01655225     0.01891536     0.04887720
Ti      7.04230509     6.05909315     1.17594063     0.02333586    -0.03202567     0.03675111
Ti      7.02794335     0.54035468     1.21136775    -0.02501813    -0.01044665    -0.05290869
Ti      1.89167584     6.04330582     1.22610681     0.03694677    -0.05117706    -0.00494938
Ti      1.91204174     0.86157196     1.33865164     0.01915704    -0.00485527    -0.02546627
Ti      8.47082677    10.49399930     8.07492159    -0.01430614    -0.02916892    -0.00227800
Ti      8.51365401     4.95147765     8.05551421    -0.00724640     0.07511044    -0.03368224
Ti      3.50359517    10.42262869     7.93777555    -0.01803527    -0.01485533     0.02234289
Ti      3.28476187     4.93529084     8.08769103     0.00603412     0.01870170    -0.03407356
Ti      5.87199227     6.04315416     5.85770957    -0.03778366    -0.05127064    -0.00577239
Ti      5.85145988     0.86181796     5.97033316    -0.02014614    -0.00457348    -0.02630162
Ti      0.72153294     6.05912755     5.80770974    -0.02319624    -0.03189943     0.03653333
Ti      0.73587909     0.54044899     5.84329593     0.02503356    -0.01125912    -0.05317712
Ti      9.64461226    10.49400977     3.44337014     0.01405108    -0.02981041    -0.00315294
Ti      9.60154709     4.95166183     3.42389072     0.00655426     0.07564548    -0.03303020
Ti      4.26094976    10.42271228     3.30582157     0.01553101    -0.01480467     0.02193795
Ti      4.47871984     4.93518126     3.45590010    -0.00628764     0.01869038    -0.03283891
O       6.75339067     7.47282598     4.71873061     0.07784738     0.01390222     0.01906988
O       6.84676366     1.90862273     4.70567586    -0.00126293    -0.00097085    -0.00423872
O       1.60174874     7.43778316     4.75378579     0.03109596     0.01484427     0.01721303
O       1.67393641     1.88828871     4.69398206    -0.01301981    -0.02711024    -0.01597016
O       8.60557657     9.12507758     4.54700604     0.03461143     0.02892055     0.01752182
O       8.71879779     3.58483629     4.53006750    -0.00001723    -0.02524464    -0.00698518
O       3.49478339     9.10836501     4.55428434    -0.00664939     0.02750233    -0.03591215
O       3.56505195     3.55405064     4.52404109     0.04432301     0.01384000    -0.02746479
O       6.16184192     7.43774910     0.12209833    -0.03096972     0.01493169     0.01715312
O       6.08950440     1.88834060     0.06224193     0.01304321    -0.02724496    -0.01543845
O       1.01010648     7.47280689     0.08702024    -0.07732441     0.01361040     0.01843122
O       0.91675302     1.90848868     0.07394860     0.00167199    -0.00107524    -0.00460279
O       9.50957938     9.12510308     9.17867099    -0.03476236     0.02887761     0.01711070
O       9.39633064     3.58482220     9.16174510    -0.00026662    -0.02549918    -0.00692887
O       4.26890684     9.10847427     9.18591008     0.00780819     0.02751236    -0.03578308
O       4.19840593     3.55415810     9.15582211    -0.04393888     0.01357517    -0.02725885
O       8.72904805     6.34641196     0.06865811    -0.02728661    -0.05490464     0.00384534
O       8.69679035     0.83278910     0.09906103    -0.00510493     0.01397395    -0.00691833
O       3.56668812     6.34741269     0.09209799     0.04683420    -0.00901378     0.01120436
O       3.30190007     0.65415235     0.07084246    -0.05980234    -0.10436163     0.03204856
O       6.85638294    10.16394502     9.19408822     0.03273813    -0.02538708    -0.02569793
O       6.81623114     4.67549344     9.20246422    -0.03435664    -0.00682294     0.00671855
O       1.65472247     4.67871188     9.16307646    -0.02570179     0.05251146    -0.00129789
O       9.38610283     6.34641720     4.70046748     0.02639958    -0.05465473     0.00369365
O       9.41825537     0.83278296     4.73084566     0.00531936     0.01416113    -0.00715050
O       4.19685018     6.34738281     4.72380420    -0.04664189    -0.00917241     0.01174120
O       4.46165522     0.65416019     4.70263772     0.06034510    -0.10471181     0.03179916
O       6.10874700     4.67875518     4.53130692     0.02648032     0.05198155    -0.00107498
O       0.90724680    10.16392915     4.56235208    -0.03225604    -0.02534106    -0.02556295
O       0.94736749     4.67545674     4.57067102     0.03421600    -0.00609943     0.00737907
O       5.40782334     9.01131142     2.69274398     0.07033872    -0.06801547    -0.00862863
O       5.36676268     3.36465075     2.45224495     0.10255389     0.02964354     0.01991860
O       0.15857508     8.84045443     2.51232222    -0.02138799     0.05260710    -0.00092457
O       0.20291196     3.35447504     2.49553018    -0.02397272    -0.01783781     0.01353918
O      10.10497515     7.59608235     6.75751148    -0.00142336     0.03912423    -0.01774165
O      10.19026879     2.14514226     6.76212787    -0.00805913     0.03457595     0.05452772
O       4.96582692     7.64867118     6.79462144    -0.01522556     0.00169924    -0.01565957
O       4.95672113     2.19579276     6.78708573    -0.03410235    -0.04821514    -0.01619744
O       8.01020564     7.59604930     2.12582194     0.00146553     0.03849303    -0.01827438
O       7.92490415     2.14519577     2.13033420     0.00801850     0.03476158     0.05465190
O       2.79780261     7.64866571     2.16281628     0.01541428     0.00168279    -0.01560249
O       2.80675688     2.19575037     2.15531170     0.03382442    -0.04920913    -0.01693689
O       7.60506521     8.84047955     7.14414315     0.02153120     0.05254051    -0.00125727
O       7.56065543     3.35448645     7.12726026     0.02350709    -0.01737089     0.01413362
O       2.35601898     9.01148594     7.32452569    -0.07047808    -0.06776402    -0.00842859
O       2.39679537     3.36460778     7.08390220    -0.10248910     0.03060334     0.02068248
O       5.38937616     6.17744747     2.16818256     0.03262063    -0.04661720     0.00911328
O       5.32069997     0.58243266     2.09304977    -0.04982080     0.00254385    -0.02739666
O       0.22597239     6.08838511     2.11770734     0.01240198     0.04932638     0.00945472
O       0.15756010     0.58751275     2.12503290     0.02894035    -0.01400583     0.00762050
O      10.23666160    10.42184193     7.20500090     0.05402558    -0.02125120    -0.00474780
O      10.14676928     4.90106776     7.11844877     0.02578406    -0.01708833     0.00924132
O       5.10478045    10.37844212     7.05153865    -0.02856934     0.10551477     0.01067831
O       4.97766235     4.88738667     7.12708328    -0.00348976     0.04913997    -0.03575943
O       7.53749696     6.08842778     6.74943567    -0.01149078     0.04904381     0.01010727
O       7.60607768     0.58762897     6.75677068    -0.02903419    -0.01391430     0.00719549
O       2.37422850     6.17745471     6.79991962    -0.03249516    -0.04647425     0.00919273
O       2.44290919     0.58246943     6.72479416     0.05040881     0.00202603    -0.02738252
O       7.87861711    10.42184540     2.57323394    -0.05447553    -0.02151911    -0.00481079
O       7.96838537     4.90106890     2.48674407    -0.02585117    -0.01679574     0.00926934
O       2.65932312    10.37849748     2.42008783     0.02879842     0.10581533     0.01037929
O       2.78582586     4.88727766     2.49528497     0.00388468     0.04976115    -0.03609367
