# total energy = -19516.28857327 eV

CRYSTAL
PRIMVEC
        5.17600016     0.00000000     0.00000000
        0.00000000     5.50899976     0.00000000
        0.00000000     0.00000000     9.26300011
PRIMCOORD
23 1
Ti      1.83952802     3.32899799     3.38590999    -0.08779678    -1.58143266     2.91702046
Ti      3.35987802     2.18636201     5.77810798     0.57572755     0.36354667    -2.29060463
Ti      4.32564597     2.14086901     1.62026200     0.75224670    -1.71964339    -3.21316023
Ti      0.78969899     3.36855198     7.72684199    -0.21423082     0.20684610     1.97002471
Ti      1.90988600     0.18205999     1.32291201    -0.07633685     1.73839857    -2.72624505
Ti      3.28428500     5.10552301     7.89313499    -0.19242272     0.31404160     1.48934291
Ti      0.84796098     0.58255001     5.96240401    -1.22155393    -1.11349043    -3.65836877
Ti      4.47274503     4.91014199     3.32537598     1.33304138     0.74593464     3.64499080
O       1.79724300     1.81990200     4.81605999    -0.32538917     0.46533205    -1.46602531
O       3.53499701     3.55766098     4.37119602     0.38099649    -0.70923933     0.36472115
O       4.88252200     2.76929298     9.22867100     0.77654518     0.52263065    -1.14920204
O       3.59256202     0.50409298     0.31347201    -0.10187897    -0.18211568    -0.07443784
O       1.87573300     4.48395199     8.94632102    -1.14211402    -0.04223630     2.00605539
O       4.35192698     0.68557098     4.92401098    -1.08567879     0.21197571    -0.96551979
O       0.96954099     4.65175003     4.64318201     0.14020822    -0.89065926    -0.86911444
O       0.11543002     3.42346200     2.41163102     1.35055060     2.28664230     0.66121213
O       5.16430201     2.20087501     6.53353899    -0.11376056     0.42914067     1.13023166
O       2.56161599     1.95117400     2.00752402    -0.84323319     1.45361279     0.61558686
O       2.65129502     3.53102601     6.89955602    -0.75054206     0.20437501     0.72578670
O       0.38326202     0.90895898     2.35456798    -1.09551301    -1.91333701    -0.68053166
O       5.02817301     4.90041200     7.23365002     0.50687724    -0.17230254     0.33030178
O       2.39650300     0.93036600     6.99331702     0.62263426    -0.16341346     1.19301031
O       2.67236300     4.86716401     2.64223302     0.81162275    -0.45460617     0.04492465
