# total energy = -19072.80130596 eV

CRYSTAL
PRIMVEC
        5.17600016     0.00000000     0.00000000
        0.00000000     5.50899976     0.00000000
        0.00000000     0.00000000     9.26300011
PRIMCOORD
22 1
Ti      1.46946998     3.23206399     3.61347198     0.95448024     1.07001794    -0.48797062
Ti      4.28039899     2.23090101     5.84697500    -1.38872969     0.07480165    -0.80731358
Ti      4.06834401     2.08795901     1.48265797     0.60051608    -0.85476871     2.64431116
Ti      1.10756698     3.10763298     8.18017698    -1.16079823    -0.85442341    -1.26844676
Ti      1.53732098     0.48809198     1.11358801     0.57491508    -0.56222102     2.34078152
Ti      3.38641001     5.19911600     7.92975300     0.15462389    -0.91112217     0.66602112
Ti      1.48447099     0.45197802     5.81192199     1.41367789    -1.05400588    -1.49693718
Ti      4.05317600     4.96896401     3.52505800    -0.30229191     0.13038686     0.99092821
O       3.10525401     3.26386600     4.81054501     0.98901376     0.72773714    -0.40661652
O       0.57362100     2.04726301     0.39770602    -0.12883057    -0.11917145    -0.97985986
O       4.66464602     3.60464202     7.39828399    -0.68100089     0.11082796     0.05986353
O       3.30542801     0.80265600     0.33600702    -0.05136192    -0.25163833    -0.04263148
O       1.83734400     4.39766398     9.11848402     0.73544351     1.58436989     2.54796803
O       3.43146898     0.62783198     4.94304099    -0.30138714    -0.28932455    -0.67109160
O       0.55728699     4.76826200     4.65813598     0.05813369     0.43243452     0.57675753
O       4.84087401     3.31940199     2.80793302    -0.23781170     0.38711803    -1.29425627
O       0.89661798     2.03485502     4.89104202    -1.89473970    -1.24685900     2.16124107
O       2.29228901     2.03597301     2.42408102     1.04885313    -1.02154877    -1.47362370
O       2.02632198     4.45706799     6.89124302     0.06733902    -0.13522542    -0.84447015
O       5.04280799     0.73418501     2.54666398    -0.87177836    -0.39295341    -1.69121778
O       3.13004999     1.28711899     7.20239998    -0.82126233     1.78146353    -0.83183883
O       2.20553198     4.63659598     2.47536301     1.24299643     1.39410433     0.30840162
