# total energy = -19961.04087756 eV

CRYSTAL
PRIMVEC
        5.93400000     0.00000000     0.00000000
        0.00000000     9.29699974     0.00000000
        0.00000000     0.00000000     4.64899994
PRIMCOORD
24 1
Ti      4.48413901     6.92625799     2.36587698    -0.81864803     1.19836463     0.06993789
Ti      4.42801097     2.42021300     2.37452299     0.29666273    -1.78361863    -0.01170547
Ti      1.47498803     6.91615102     2.19730201     0.86664155     1.52217025     0.79826098
Ti      1.48365097     2.39038699     2.33859800    -0.16178724    -1.04063459     0.53503854
Ti      2.97893099     4.65309900     0.01438902    -0.17950035    -0.06471186    -0.45587836
Ti      2.95414401     9.24255598     0.01271798     0.33513262     0.04656115    -0.33659301
Ti      5.91330801     4.66992599     4.64271898     0.18181871    -0.39068184     0.00325090
Ti      0.01914600     0.02939400     0.01214599    -0.29461356     0.05118734    -0.28504571
O       4.39024100     5.55223301     0.85532099     0.53021335    -0.09112764    -0.27692643
O       4.40736100     0.82315299     0.90834598     0.55889659     0.42753759    -0.01608226
O       1.46609499     5.54409501     0.89279600    -0.03754866    -0.14301407    -0.42371539
O       1.50209598     0.91589702     0.91206498    -0.18046014    -0.13527659    -0.08033775
O       4.46648999     8.29129902     3.71347802    -0.10584336     0.71713236     0.24554301
O       4.44001398     3.66261900     3.76689798    -0.02854003     1.07404198     0.86498884
O       1.47254302     8.34953402     3.70314101    -0.14090885     0.20794576     0.23976369
O       1.44281701     3.75558999     3.77956299     0.40392946     0.01754727    -0.12544160
O       3.00215600     5.98270003     3.03597598    -0.70490393    -0.58189871     1.51560006
O       2.99668002     1.42759401     3.24313199    -0.04653416     0.32992331    -0.43693318
O       5.83725698     6.02402898     3.28918200     1.08476477    -0.07663921    -0.69998181
O       5.92841401     1.53763499     3.30240699     0.44621126    -0.73579575    -0.24703348
O       2.96330798     7.86113400     1.39748298    -0.56881231    -0.21472319    -0.02819807
O       3.04440101     3.36475100     1.50932602    -0.79777813    -0.27560128    -0.62850743
O       0.00931802     7.85618900     1.37466200     0.17562929    -0.44993962     0.23425895
O       0.08877599     3.25020498     1.44805100    -0.81402159     0.39125134    -0.45426293
