# total energy = -19073.65939557 eV

CRYSTAL
PRIMVEC
        7.60600008     0.00000000     0.00000000
        0.00000000     7.60600008     0.00000000
       -1.89786986    -1.89786986     4.85670466
PRIMCOORD
22 1
Ti      3.84800001     6.57651199     1.03596501    -0.41940776     1.15820887    -0.00389728
Ti      3.64709998     2.85111399     1.31344302     0.70140569    -1.69613527     0.15863712
Ti      0.07816599     7.07571098     1.12457003    -0.70522558    -2.06814036    -0.47187988
Ti     -0.05488198     2.93584702     1.45614201    -1.13204943     1.45168189    -0.87416486
Ti      5.46632024     2.98404522     3.72755783     1.60255505     1.07679486     1.26734041
Ti      5.86674321    -0.72286179     3.56380182     0.07846058    -2.34153563    -0.46089535
Ti      1.86142321     2.68199021     3.69080483    -2.69641639     0.72157317     0.37136925
Ti      1.89469925    -0.93124179     3.53878983    -0.34522035    -2.51205357     0.75531660
O       3.56687200     4.62622802     0.77092002     0.27147748    -0.65636483     0.71385780
O       3.64959399     0.78771198     1.04126599     1.05499627     2.00016602    -0.74607425
O       0.23989002     4.67251002     0.75848399    -1.18325348    -0.54914953    -0.08276770
O       7.05680898     1.28378602     0.53269199     1.24958205    -0.25048545     0.60344611
O       5.53110524     4.86381723     3.94763382     0.28175856     1.65658809     1.62773156
O       0.11332722    -1.03330076     3.37177879    -1.76681055     1.26266126    -1.27739034
O       1.76951025     4.61173920     4.06892479     0.94573205     1.42223838    -0.88886437
O       1.85663621     0.75713824     4.17906583     0.68895434     1.57108345    -0.10322803
O       3.58786822     3.03203022     3.35715482     1.89219405    -0.78709442    -0.39683629
O      -0.08375479     3.01780620     3.31266382     0.53929140    -1.02506142     0.59105364
O       5.62172002     6.62085800     1.63569598     1.36373651     0.25292568     0.54051808
O       5.63837302     3.00288002     1.90361498    -1.80891727    -0.41952114    -1.96848539
O       1.99823600     6.64458599     1.58165000    -1.42689979     0.25441641     0.81236708
O       1.78564502     2.62458300     1.70586102     0.81405656    -0.52279623    -0.16715365
