# total energy = -4983.37551597 eV

CRYSTAL
PRIMVEC
        3.50973944     0.00000000     0.00000000
        0.00000000     2.96112683     0.00000000
        0.00000000    -0.00006689     4.64855047
PRIMCOORD
6 1
Ti      1.75486962     1.48052992     2.32427538     0.00000000     0.00000000     0.00000000
Ti      0.00000000     0.00000000     0.00000000     0.00000000     0.00000000     0.00000000
O       1.75486962     0.57706696     0.90593407     0.00000000    -3.14514425    -3.04482953
O       1.75486962     2.38399293     3.74261665     0.00000000     3.14514425     3.04482953
O       0.00000000     0.90343631     3.23021033     0.00000000     3.14700264    -3.04929169
O       0.00000000     2.05762354     1.41834043     0.00000000    -3.14700264     3.04929169
