# total energy = -4972.66526448 eV

CRYSTAL
PRIMVEC
        4.68262624     0.00000000     0.00000000
       -0.00000709     2.80957574     0.00000000
       -2.34133949    -1.40483912     5.09958194
PRIMCOORD
6 1
Ti     -0.00020072     2.10728167     1.27489515    -0.01147484    -0.01707676    21.09631987
Ti      2.34148022    -0.70254516     3.82468617     0.01147484     0.01707676   -21.09631987
O       0.00004959     0.70238491     0.83068012     0.00968921     0.01166047   -12.61815444
O       2.34122980     0.70235155     4.26890125    -0.00968921    -0.01166047    12.61815444
O      -0.00001929    -0.70239426     3.38047109    -0.00220986    -0.00014424    -1.31328219
O       2.34129863     2.10713067     1.71911023     0.00220986     0.00014424     1.31328219
