# total energy = -19936.01616258 eV

CRYSTAL
PRIMVEC
        5.91164875     0.00000000     0.00000000
        2.41994385     5.80778703     0.00000000
        0.00000000     0.00000000    10.80736894
PRIMCOORD
24 1
Ti      3.57674487     3.44168932     4.00945679     0.56791448    -2.80649461     0.85595476
Ti      4.75484782     2.36609787     6.79791227    -0.56791448     2.80649461    -0.85595476
Ti      6.08430344     2.36609984     1.39418453    -1.62102869    -0.88401450     0.51471730
Ti      2.24728930     3.44168758     9.41318459     1.62102869     0.88401450    -0.51471730
Ti      2.36677306     0.53779579     1.39422786     0.56791448    -2.80649461    -0.85595476
Ti      5.96481966     5.26999158     9.41314126    -0.56791448     2.80649461     0.85595476
Ti      1.03731735     0.53779365     6.79786888     1.62102869     0.88401450     0.51471730
Ti      7.29427537     5.26999372     4.00950012    -1.62102869    -0.88401450    -0.51471730
O       2.72317751     2.04502060     5.51491766     1.66028483     2.09645721    -0.95337389
O       5.60841513     3.76276660     5.29245140    -1.66028483    -2.09645721     0.95337389
O       1.93689795     2.04504407     0.11126792     0.06413722    -0.82638063     1.37571862
O       6.39469482     3.76274323    10.69610078    -0.06413722     0.82638063    -1.37571862
O       4.39844329     0.85887295     0.11123284    -1.66028483    -2.09645721    -0.95337389
O       3.93314940     4.94891425    10.69613587     1.66028483     2.09645721     0.95337389
O       5.18472292     0.85884953     5.51495269    -0.06413722     0.82638063     1.37571862
O       3.14686967     4.94893775     5.29241631     0.06413722    -0.82638063    -1.37571862
O       1.68673093     3.53262547     2.91933999     0.58304131     2.24396583     2.11701627
O       6.64486171     2.27516174     7.88802907    -0.58304131    -2.24396583    -2.11701627
O       4.11859427     2.27510769     2.48437891     1.05900950     1.59972530     0.88241167
O       4.21299836     3.53267952     8.32298997    -1.05900950    -1.59972530    -0.88241167
O       0.47675908     0.62873176     2.48434436     0.58304131     2.24396583    -2.11701627
O       7.85483361     5.17905544     8.32302446    -0.58304131    -2.24396583     2.11701627
O       3.00302653     0.62878586     7.88806350    -1.05900950    -1.59972530     0.88241167
O       5.32856610     5.17900134     2.91930550     1.05900950     1.59972530    -0.88241167
