# total energy = -19516.80414256 eV

CRYSTAL
PRIMVEC
        5.17600016     0.00000000     0.00000000
        0.00000000     5.50899976     0.00000000
        0.00000000     0.00000000     9.26300011
PRIMCOORD
23 1
Ti      1.89750399     3.22663902     3.37486601    -0.29183497    -0.76244730     2.43963328
Ti      3.32463900     2.25076701     5.84685599     0.90020680     1.06267281    -2.47674228
Ti      4.32485401     2.16407502     1.56579400     1.17260294    -1.44031813    -0.38363059
Ti      0.81444898     3.29100999     7.82108301     0.23617905     1.39645740    -0.20017948
Ti      1.98348201     0.22315399     1.27818002    -0.57435792    -0.15885413    -1.53442388
Ti      3.29349601     5.25992402     7.87186101    -0.48270089    -0.97044834     0.74837307
Ti      0.80611301     0.56187898     5.93365498    -1.38485658    -0.78156963    -3.01537702
Ti      4.48756501     4.91371102     3.40170498     0.40346049     1.51331409     3.43769784
O       1.74249797     1.95285001     4.71582900    -0.65231174    -1.19784450     0.46492736
O       3.55108601     3.46381002     4.41246999     0.09403351     0.59896004    -0.20604186
O       5.04942498     2.58447698     9.22489601     0.30083924     0.73465623    -0.09368461
O       3.76692698     0.48550700     0.22076100    -1.68591488     0.00917087     0.22221796
O       1.69764200     4.52904298     8.99499802     0.71814255     1.27899574     1.06353619
O       4.30116502     0.64989697     4.98188001    -1.19968309     0.44921868    -0.88484625
O       0.91622299     4.69856200     4.50945500     1.04268942    -0.06999934     0.21560971
O       0.11013703     3.49191399     2.59466602     1.03800255    -1.60292401    -1.93440001
O       5.10803099     2.27642798     6.53372298    -0.01671552    -0.33450193     0.52378456
O       2.56991899     1.74327999     2.20552701    -0.12617642     1.79328933    -0.39383607
O       2.56721199     3.68255501     6.87480000    -0.30217904     0.04159327     0.67376452
O       0.17903601     0.72489600     2.23561000     0.32509195     0.11590460    -0.65273597
O       4.98489901     4.87218802     7.13819602     0.60841965    -0.32960372     0.95416528
O       2.33991797     1.12947698     7.04412100    -0.51519373    -0.90012632     1.29049603
O       2.78675800     4.64316698     2.39548598     0.39225664    -0.44559625    -0.25830803
