# total energy = -19893.67099670 eV

CRYSTAL
PRIMVEC
        8.81818814     0.00000000     0.00000000
        0.00002776     3.55991067     0.00000000
        0.00000000     0.00000000    13.64835664
PRIMCOORD
24 1
Ti      3.19618565     2.10959972     5.06344299     0.13829635    -0.09768936     2.41072661
Ti      5.62203051     1.45031083     8.58491378    -0.13829635     0.09768936    -2.41072661
Ti      7.60512922     1.45031204     1.76068086     0.13984647     0.09696431    -2.41143418
Ti      1.21308694     2.10959869    11.88767603    -0.13984647    -0.09696431     2.41143418
Ti      3.19617189     0.32964445     1.76073558     0.13829635    -0.09768936    -2.41072661
Ti      5.62204427     3.23026622    11.88762131    -0.13829635     0.09768936     2.41072661
Ti      1.21307318     0.32964317     8.58485906    -0.13984647    -0.09696431    -2.41143418
Ti      7.60514297     3.23026750     5.06349771     0.13984647     0.09696431     2.41143418
O       2.79102212     1.25350504     6.96465191     1.65731546     0.67149038    -2.06297141
O       6.02719410     2.30640551     6.68370486    -1.65731546    -0.67149038     2.06297141
O       1.61814326     1.25351938     0.14051748    -1.65790424     0.67164233    -2.06415772
O       7.20007302     2.30639117    13.50783891     1.65790424    -0.67164233     2.06415772
O       6.02718034     0.52645017     0.14047321    -1.65731546    -0.67149038    -2.06297141
O       2.79103581     3.03346038    13.50788318     1.65731546     0.67149038     2.06297141
O       7.20005926     0.52643583     6.96469624     1.65790424    -0.67164233    -2.06415772
O       1.61815683     3.03347478     6.68366053    -1.65790424     0.67164233     2.06415772
O       0.32040208     2.16533946     3.68676161    -1.67264849     0.50116347     0.25931873
O       8.49781407     1.39457109     9.96159516     1.67264849    -0.50116347    -0.25931873
O       4.72950777     1.39453800     3.13746011    -1.67234767    -0.50116296    -0.25969180
O       4.08870845     2.16537261    10.51089641     1.67234767     0.50116296     0.25969180
O       0.32038832     0.38538412     3.13741653    -1.67264849     0.50116347    -0.25931873
O       8.49782783     3.17452642    10.51093999     1.67264849    -0.50116347     0.25931873
O       4.08869469     0.38541721     9.96163862     1.67234767     0.50116296    -0.25969180
O       4.72952152     3.17449333     3.68671808    -1.67234767    -0.50116296     0.25969180
