# total energy = -19959.03783513 eV

CRYSTAL
PRIMVEC
        7.60600008     0.00000000     0.00000000
        0.00000000     7.60600008     0.00000000
       -1.89786986    -1.89786986     4.85670466
PRIMCOORD
24 1
Ti      3.74501402     6.74187300     1.31630502     0.66715704     1.58192811    -0.15518310
Ti      3.82912600     3.03726998     1.34459701    -2.26199004    -0.97813105    -1.93171680
Ti      0.08843499     6.55128003     1.16844200    -0.79728833     0.39114078    -1.19877601
Ti      0.05136602     2.84898802     1.07586101     1.14084003    -0.54362757     0.72034238
Ti      5.69373824     2.72853622     3.48743784     0.12087635     0.29588678     0.61723160
Ti      5.79348624    -1.10029376     3.60412179     0.20551684    -0.19821464    -0.11235879
Ti      1.77901321     3.09803323     3.76961981     0.57885735    -3.78428833    -1.99535240
Ti      1.79297423    -0.91876876     3.68363681     0.04980743     2.18163635     1.32634314
O       3.65973901     4.94165301     0.96161402     0.51779260    -1.32630586    -0.67167395
O       3.65333400     1.10638998     0.76151099     0.31502222    -1.67530753     0.74784523
O      -0.03217599     4.66372600     0.60185699     0.24883866     0.52044187     0.99205821
O       0.40519102     0.84779799     0.75216402    -1.46859642    -0.13740803    -0.96956876
O       5.88834820     4.64736421     3.94803779    -0.92538074     0.62884579     0.08252910
O       5.82307424     0.92521821     4.02586283     0.10082919    -1.78697881    -1.49431594
O       1.84656423     4.88015124     4.17791382     0.08925254    -0.53166834    -0.43310017
O       1.74377821     1.12416023     4.24697880     0.11675744    -0.04619528    -0.65352067
O       3.82437520     2.75729023     3.31732381     0.01433416     0.80456018     0.22004512
O       3.61223820    -0.90706077     3.12557982     2.08581156     0.35760690     2.31566389
O       0.10137523     2.76367322     2.92747882    -2.02148536     0.67250391     2.97031431
O      -0.01543377     6.31124422     3.05883982    -0.91980658     1.12955443     1.67680905
O       5.71994299     6.63099899     1.58289801    -0.62550618     0.41669653     0.48861108
O       5.65632398     2.82944000     1.54314399     1.48580764    -0.17992201    -0.05606344
O       1.78745798     6.33566803     1.77492601     0.99198108     0.78587674    -1.78116477
O       1.95831799     2.74117700     1.79312097     0.29057179     1.42136858    -0.70499829
