# total energy = -39037.39517361 eV

CRYSTAL
PRIMVEC
        7.60600008     0.00000000     0.00000000
        0.00000000     7.60600008     0.00000000
       -3.79573973    -3.79573973     9.71340985
PRIMCOORD
46 1
Ti      1.94949142     4.75212146     6.11223060    -0.14125723     0.06749585    -0.11975689
Ti      3.85974001     6.80094897     1.27147699    -0.73504884     0.59665171    -0.06662425
Ti      2.04051843     0.79623846     6.13224663    -1.46543499    -0.72343671    -0.06954425
Ti      3.81377700     2.75600698     1.25799101    -1.73136711     0.42350687     0.25271922
Ti     -1.87060554     4.80639446     6.03158865     0.08528558    -1.81807477     0.06739198
Ti      0.05258201     6.65017399     1.17476302    -0.39755646    -0.49725951     0.01777173
Ti     -1.91037956     0.88327547     6.01772463     0.97436516     0.83752097    -0.12945895
Ti     -0.17596101     2.86674801     1.23677799     1.48616426     0.76866757    -0.65562101
Ti      3.82351444     1.02531447     8.51831865    -0.58015782    -1.30337727     0.07452422
Ti      5.68575697     2.84455701     3.77473901    -1.30089024    -0.47834158    -0.50504172
Ti      3.88980443    -2.77774854     8.50957463    -0.25111023     0.66439619    -0.73730884
Ti      5.69045300    -1.02163097     3.51913502    -0.88120865     0.37551593     0.90571668
Ti     -0.07057055     1.02246247     8.36597360     0.94056594    -1.07005188    -1.02018249
Ti      1.76948501     2.85364298     3.60395298     1.38084335    -0.33271964    -0.98008098
Ti      0.01639142    -2.81504554     8.47911265     0.51260463     0.40096112     0.83024680
Ti      1.82172401    -0.94463399     3.67989198     0.61825258    -0.43945697     0.55109920
O       1.96889646    -1.05992653     5.84650965    -0.17829836     1.51169995    -1.83442159
O       3.93975701     1.02887398     0.83476102    -0.63366712    -1.87682836    -1.24257245
O      -1.87500856     2.79514345     5.63621963    -0.19714198     0.48327553    -0.22347086
O      -0.09396600     4.74128999     0.82605400     0.43982593     0.95693307    -0.70023146
O      -1.92324053    -1.04431056     5.74158560     0.41202303     2.25647271    -0.92768368
O      -0.00051600     1.05570602     0.75774102     0.11042224    -1.59379916     0.28531414
O       3.66441947     2.86321146     8.94934262     0.48226997     0.55134654    -0.11228243
O       5.50628101     4.71497200     4.02227702     0.32246531     0.62309603    -0.07061435
O       4.00354446    -0.89411857     8.89769164    -0.23303382    -0.43083452    -0.22772835
O       5.76509599     0.95285100     4.07618002     0.23197067    -1.99413318    -0.30001648
O       0.14152343     2.71592746     9.02208063    -0.43184008     0.88441534     0.11046672
O       2.00291801     4.66560299     4.14149102    -0.42071697    -0.39672394    -0.29234636
O      -0.18768954    -0.80810356     8.96940463     0.07347444    -0.08954127    -0.18902757
O       1.68027498     0.96569498     4.14721799     0.18129189    -0.17430620    -0.24066640
O       1.90200845     0.62393146     7.99749965     0.97988686     1.14425549     1.07003980
O       3.82657701     2.53407602     3.14112699     0.05434183     0.74806351     1.26238872
O       1.86281044    -2.75750656     8.04645960     0.85014252    -0.33153436     0.65974634
O       3.80149601    -0.93715899     3.24866301    -0.29657917     0.09003415    -0.11055336
O      -1.92646555     1.13879944     7.99917264    -0.13963435    -0.19874892     0.38891344
O      -0.07741900     2.88284198     3.17044997    -0.52097974    -0.01114831     0.40955683
O      -1.79105157    -2.94506455     8.00567263    -1.28039211    -0.04950481     0.76556116
O      -0.11579398    -1.20207899     3.20976202     1.63212069     0.59365688    -0.30482728
O       3.86041345     4.73237044     6.39153163    -0.72694241    -0.68459658     1.38049239
O       5.66404399     6.62422700     1.38095000     0.78278190    -0.25468432     2.03087246
O       3.84847044     1.03181044     6.42045360    -0.19129375     0.24067669     0.08964797
O       5.60787002     2.96878799     1.47211401     1.05838858     0.60493786     0.31586734
O       0.00871947     4.59623145     6.31352460     0.87481843     0.01996642     0.72917387
O       1.92856998     6.58129602     1.70021100    -0.74317070     0.19536355    -0.44298247
O       0.09307042     1.16476347     6.47962863    -0.80186952    -0.35475143    -0.26340396
O       1.90123400     3.01681400     1.71484201    -0.20471439     0.06494429    -0.43106257
