# total energy = -18966.39626161 eV

CRYSTAL
PRIMVEC
        7.60600008     0.00000000     0.00000000
        0.00000000     7.60600008     0.00000000
       -1.89786986    -1.89786986     4.85670466
PRIMCOORD
22 1
Ti      5.95092399     5.13706298     0.75641400    -3.53233967    20.63851884    -2.43410875
Ti      5.41245021     2.90135921     2.46253782   -14.59417728     1.24593571     5.10015551
Ti     -0.98186076     4.14081225     4.38649681    -0.70774654    13.57069452     3.02610470
Ti      0.60560299     3.98960800     1.47262901     8.46470158     2.95125600    30.49196117
Ti     -1.52978280     2.24733423     4.69167682    -5.47195542    47.79340798    52.94766827
Ti      5.34535625     1.34505723     3.91919181   -62.10476561   -40.14892410   -31.35819674
Ti     -0.66960576     1.95875721     3.60722282    68.84134250     7.82906397   -40.06991304
Ti     -0.95292175    -0.02067776     4.31570781    20.42159839   -17.44944059    -0.25609971
O       3.80698702     4.95277600     1.31121698     2.72910926     1.45309883     0.47612606
O       5.11162400     6.25960202     1.98948003    -0.02772216    -2.37229349    -1.89312221
O       0.42357400     5.97394098     1.48167497    -2.84569623    -0.75942317    -1.28195714
O      -0.47735778    -1.65084876     4.35625083    -0.88964213    -2.20442944    -0.82362441
O       6.69388700     3.71701800     1.79075301     0.81578100     3.95134942     6.36297309
O       6.54089021     0.87679622     2.56017679    -4.00295225    -8.43201282    -9.69301495
O       2.42849701     5.97821599     0.08821401     5.25419910     1.36886149    -0.76605353
O       1.90157897     4.17473701     0.78186701    18.56551421    -1.28464729    -6.90112935
O       4.15650420     1.95898724     2.68397881    -7.64749002    -2.82033538    -1.93563542
O       0.82968024     2.67101524     2.45684281     1.97382480    -3.67065736     2.84393606
O       4.61473021     4.43033623     3.80789281     0.95664305    -3.27427049     1.20255425
O       5.79177901     3.56993001     1.01204202   -11.78080960   -10.41916880   -15.97193556
O       0.82611025     0.29456821     4.07603979     0.58023186     1.83405984     0.67222237
O       5.16270723    -0.02958477     4.72598582   -14.99764882    -9.80064368    10.26108935
