# total energy = -19892.06146806 eV

CRYSTAL
PRIMVEC
        8.11299205     0.00000000     0.00000000
        0.00002522     2.87822565     0.00000000
        0.00000000     0.00000000    12.90708607
PRIMCOORD
24 1
Ti      2.94058416     1.70563376     4.78843699    -0.22035545     0.38297213     1.47926341
Ti      5.17243278     1.17259162     8.11864947     0.22035545    -0.38297213    -1.47926341
Ti      6.99694180     1.17259254     1.66505468    -0.21970419    -0.38281863    -1.47920016
Ti      1.11607520     1.70563294    11.24203189     0.21970419     0.38281863     1.47920016
Ti      2.94057188     0.26652099     1.66510644    -0.22032897     0.38281478    -1.47949404
Ti      5.17244511     2.61170450    11.24198013     0.22032897    -0.38281478     1.47949404
Ti      1.11606286     0.26652001     8.11859771     0.21964762     0.38268494    -1.47904873
Ti      6.99695414     2.61170548     4.78848875    -0.21964762    -0.38268494     1.47904873
O       2.56782196     1.01347209     6.58638738     4.44798569    -0.06957485     0.02068788
O       5.54519503     1.86475334     6.32069908    -4.44798569     0.06957485    -0.02068788
O       1.48873901     1.01348378     0.13288571    -4.44792579    -0.06966432     0.02162787
O       6.62427804     1.86474165    12.77420036     4.44792579     0.06966432    -0.02162787
O       5.54518270     0.42564046     0.13284379    -4.44868221     0.06973349     0.02179911
O       2.56783430     2.45258492    12.77424228     4.44868221    -0.06973349    -0.02179911
O       6.62426571     0.42562883     6.58642924     4.44543953     0.06975868     0.02198011
O       1.48875118     2.45259660     6.32065722    -4.44543953    -0.06975868    -0.02198011
O       0.29477891     1.75069999     3.48652601    -0.33065890     0.22187934     2.97819063
O       7.81823809     1.12752538     9.42056039     0.33065890    -0.22187934    -2.97819063
O       4.35128566     1.12749870     2.96705822    -0.32869046    -0.22177007    -2.97959317
O       3.76173133     1.75072673     9.94002802     0.32869046     0.22177007     2.97959317
O       0.29476657     0.31158717     2.96701702    -0.33043959     0.22214802    -2.97871128
O       7.81825042     2.56663826     9.94006921     0.33043959    -0.22214802     2.97871128
O       3.76171906     0.31161385     9.42060153     0.32911547     0.22189143    -2.98010070
O       4.35129794     2.56661152     3.48648482    -0.32911547    -0.22189143     2.98010070
