# total energy = -19518.23448184 eV

CRYSTAL
PRIMVEC
        7.60600008     0.00000000     0.00000000
        0.00000000     7.60600008     0.00000000
       -1.89786986    -1.89786986     4.85670466
PRIMCOORD
23 1
Ti      3.76367201     6.77697100     1.17425400     0.92102477    -1.35220793    -0.13411650
Ti      3.75082301     2.81739101     1.25280899     0.35910148     1.03415490    -0.76138338
Ti      0.00382299     6.65855002     1.23448400    -1.02698460    -0.74570144    -1.24186154
Ti     -0.05721200     2.80261199     1.22061400     0.42728537     0.94731534    -0.29388054
Ti      5.55195821     2.76370820     3.58707482     0.79560246     0.44006915     2.89856328
Ti      5.80737122    -0.98736077     3.66052981    -0.72980328    -0.35950926    -1.04537185
Ti      1.96888222     2.89144122     3.61327582    -0.69937451     0.31739303     2.35027481
Ti      1.98886623    -0.90253678     3.53692480     0.19357714    -0.11861146     0.51611290
O       3.75176103     4.86114202     0.87697498    -0.20665866    -1.36684266    -0.23867611
O       3.93552402     0.98014300     0.60963600    -0.39698747     0.30703071     1.36064424
O      -0.08453501     4.67971498     0.91521301     0.55490186     0.81994619    -0.11263776
O      -0.02331899     1.00219599     0.69808301     0.11411974    -1.46767339     0.96691795
O       5.62501420     4.72567720     4.07096879     0.54173549    -0.30502756    -0.29521623
O       5.60502321     0.93593522     4.11758983     0.85420486     0.04811976    -1.12166191
O       1.95938921     4.78787320     3.99159982    -0.31371070    -0.55609922    -0.37358606
O       1.99626524     0.97630922     4.17415179    -1.03418241     0.54865588    -0.49393815
O       3.77136720     2.67699420     3.51711484    -0.24294671     0.72658065    -1.97010930
O       3.79754322    -0.98922479     3.15034484     0.17808933     0.36051251    -0.15585982
O       0.07448122    -1.05006076     3.14757983    -0.32397532     0.32998450     0.86337033
O       5.73465798     6.76954802     1.67461602     0.07771291     0.09293513    -0.21746939
O       5.70828701     2.61287501     1.77260498    -0.00683785     0.56847086    -0.88068132
O       1.89988598     6.94707598     1.45898999     0.19599809    -0.33442634     0.86015311
O       1.86946501     2.72507101     1.71820900    -0.23189174     0.06493015    -0.47958677
