# total energy = -19944.00326721 eV

CRYSTAL
PRIMVEC
        6.67672084     0.00000000     0.00000000
        0.00002628     4.73736662     0.00000000
        0.00000000     0.00000000    10.37314430
PRIMCOORD
24 1
Ti      2.42000585     2.80735905     3.84836255     0.40564721     0.23368251     0.16849782
Ti      4.25674138     1.93000757     6.52478186    -0.40564721    -0.23368251    -0.16849782
Ti      5.75825118     1.93000922     1.33816819     0.40654941    -0.23361618    -0.16906604
Ti      0.91849606     2.80735763     9.03497628    -0.40654941     0.23361618     0.16906604
Ti      2.41999271     0.43867586     1.33820977     0.40600177     0.23475698    -0.16958257
Ti      4.25675452     4.29869093     9.03493470    -0.40600177    -0.23475698     0.16958257
Ti      0.91848292     0.43867409     6.52474022    -0.40689959     0.23501846    -0.16805945
Ti      5.75826432     4.29869270     3.84840413     0.40689959    -0.23501846     0.16805945
O       2.11323361     1.66810734     5.29333615     1.06221078     0.48240367    -0.30969849
O       4.56351363     3.06925933     5.07980826    -1.06221078    -0.48240367     0.30969849
O       1.22518449     1.66812643     0.10679734    -1.06192436     0.48278393    -0.31111645
O       5.45156286     3.06924024    10.26634673     1.06192436    -0.48278393     0.31111645
O       4.56350054     0.70057597     0.10676366    -1.06276254    -0.48299733    -0.31032070
O       2.11324669     4.03679065    10.26638041     1.06276254     0.48299733     0.31032070
O       5.45154972     0.70055693     5.29336977     1.06241442    -0.48307241    -0.31117276
O       1.22519746     4.03680980     5.07977458    -1.06241442     0.48307241     0.31117276
O       0.24259682     2.88153492     2.80204508    -1.14899609     0.31119307     0.63895614
O       6.43415041     1.85583175     7.57109933     1.14899609    -0.31119307    -0.63895614
O       3.58096472     1.85578758     2.38456012    -1.14848495    -0.31099767    -0.63947525
O       3.09578252     2.88157910     7.98858412     1.14848495     0.31099767     0.63947525
O       0.24258369     0.51285156     2.38452695    -1.14917941     0.31119256    -0.63902504
O       6.43416355     4.22451506     7.98861723     1.14917941    -0.31119256     0.63902504
O       3.09576944     0.51289573     7.57113238     1.14846747     0.31073516    -0.63884892
O       3.58097780     4.22447094     2.80201197    -1.14846747    -0.31073516     0.63884892
