# total energy = -19517.78647613 eV

CRYSTAL
PRIMVEC
        5.93400000     0.00000000     0.00000000
        0.00000000     9.29699974     0.00000000
        0.00000000     0.00000000     4.64899994
PRIMCOORD
23 1
Ti      4.43923800     7.04859398     2.32735398     0.77143511    -0.67511358    -0.45384127
Ti      4.50493800     2.30031800     2.34890298    -0.78682625    -0.09994807    -0.24629660
Ti      1.28233798     7.11151501     2.07419299     0.05199852     0.28250341     1.42764387
Ti      1.49364502     2.25096598     2.33493699     0.46684412     0.13665316     0.04079699
Ti      3.04823802     4.55745800     0.14629899    -1.78586706    -1.65827165     0.43251011
Ti      3.02727800     9.11395299     4.59665198    -1.44607663     1.30601548    -0.18926617
Ti      0.00624202     4.68245199     0.00554498     1.11239951    -0.34166503    -1.03467195
Ti      0.01082702     0.07281701     0.01848802     1.28441743     0.76719407    -0.43202082
O       4.48200700     5.53581799     0.95612301    -0.68495705     0.73324136     0.25284598
O       4.39760000     0.82123600     0.89647002     0.07000139     0.80225390     0.05917885
O       1.54428098     5.66745400     0.95907402     0.45841629    -0.70054617    -0.91681356
O       1.53855200     0.88630601     0.86181299    -0.65279922     0.02978727     0.45260843
O       4.46524198     8.29707102     3.67431001     0.02565859     0.20561402     1.14972885
O       4.42551400     3.71109201     3.67165401    -0.18676552     1.03426597     0.99182450
O       1.39898198     8.35851601     3.68082497     0.27028475     0.02016928     0.69176173
O       1.51763098     3.83586698     3.75818698     0.79362888    -0.17589232     0.24344936
O       2.98719002     1.33048300     3.27377802     0.18849124     0.36367496    -0.66049608
O       0.11524099     5.98761799     3.29246798    -0.64882866     1.26599727    -1.09723591
O       5.93342701     1.47426999     3.30123603    -0.27681381    -0.11974043    -0.35635015
O       2.89588699     7.96418402     1.55850601     0.55328618    -1.17858538    -0.25067031
O       2.88695400     3.27696801     1.56501801     1.15844053     0.35830624    -1.29160906
O       5.76962099     8.07514101     1.43434298    -0.04571295    -1.44524411     0.20160182
O       0.10182598     3.23863198     1.33514198    -0.69065539    -0.91066991     0.98532217
