# total energy = -4987.38611493 eV

CRYSTAL
PRIMVEC
        2.74515919     0.00000000     0.00000000
        0.21492855     4.29587966     0.00000000
       -0.00000119    -0.00005582     4.30259862
PRIMCOORD
6 1
Ti      1.48004318     2.14791177     2.15129921     0.00000000     0.00000000     0.00000000
Ti      0.00000000     0.00000000     0.00000000     0.00000000     0.00000000     0.00000000
O       1.41446570     0.83719269     0.83851304    -0.91025313     1.20054570     1.21112219
O       1.54562061     3.45863086     3.46408534     0.91025313    -1.20054570    -1.21112219
O       0.06557689     1.31069646     2.98981313     0.91000759    -1.19965430     1.21026807
O       0.14935037     2.98512728     1.31278525    -0.91000759     1.19965430    -1.21026807
