# total energy = -19072.22462709 eV

CRYSTAL
PRIMVEC
        5.93400000     0.00000000     0.00000000
        0.00000000     9.29699974     0.00000000
        0.00000000     0.00000000     4.64899994
PRIMCOORD
22 1
Ti      4.46499898     6.96674000     2.41999699     0.52082985     0.65833738    -0.75373511
Ti      4.38878402     2.15236502     2.34550799    -0.48423738     0.52463508    -0.69265699
Ti      1.48618499     7.03821501     2.34267901    -0.41883775     1.31904789    -0.13546505
Ti      1.55049601     2.41569399     2.19631901    -0.12885500     1.16222725    -0.27318110
Ti      2.92167698     4.75187100     4.62102002    -0.33684832    -0.74588450     0.79988540
Ti      3.02367399     9.27331599     0.09171901     1.27959430    -0.62901239    -0.50766708
Ti      5.75905300     4.57266401     4.54060899     0.81460754     0.15829568     0.51309365
Ti      0.12614898     9.29307600     4.56048298    -1.19232948    -0.62493874     0.94888629
O       4.43272499     5.38330498     1.11641202     0.48479222     1.27587314    -0.46640729
O       4.50310800     1.04009000     0.53535000    -0.33586179     0.62860719     1.41777443
O       1.66044502     0.84117899     0.88973698    -1.88406833     1.37959713    -0.05502240
O       4.57367199     8.28493899     4.01471502    -0.75621571    -0.84582641    -2.07295526
O       4.29160601     3.97362700     3.69976201     0.93188717    -2.45985758    -1.21027321
O       1.46844602     8.20031403     3.86569400     0.98287140     0.78088854     0.07799316
O       1.50549298     3.78215803     3.62155501    -0.84466709     0.06374590     0.98432356
O       2.97921997     6.04296601     3.27720000    -0.83365403     0.91108334    -0.19539363
O       2.90431102     1.37104100     3.02465302    -1.22938886    -1.56916232     1.98762186
O       0.04206102     6.19381201     3.34174603     0.15411918    -1.64593472     0.16270307
O       3.04847298     8.11997000     1.75968099    -0.43607417    -0.73003493    -1.28437321
O       3.05632798     3.18491001     1.35833402    -0.90702922     0.18881186     0.00518900
O       5.85044302     8.10975502     1.43074299     1.16969348    -1.82444854     2.06680955
O       5.70474899     2.94022099     1.47380002     3.44967199     2.02395028    -1.31714938
