# total energy = -19071.99426140 eV

CRYSTAL
PRIMVEC
        5.93400000     0.00000000     0.00000000
        0.00000000     9.29699974     0.00000000
        0.00000000     0.00000000     4.64899994
PRIMCOORD
22 1
Ti      4.42713101     6.70437698     2.26185602    -1.01300422    -0.21491217     0.34387798
Ti      4.41155499     2.45499498     2.06434998     1.19612520    -0.36818082     0.19202265
Ti      1.40981498     7.30430698     2.69908100     0.27991225    -1.98665770    -0.88667662
Ti      1.58835102     2.37838398     2.14657799    -1.78360886     0.71975849     0.00499128
Ti      3.10200698     4.55921402     4.53203198    -0.91679119     0.98288091    -1.54242310
Ti      3.03842300     0.24184300     0.06429398    -0.24398570    -0.12342174     0.17313687
Ti      5.84454301     4.43195398     4.28777900     2.33562337    -0.57431678     0.59454777
Ti      5.92982199     9.24644601     0.32060997    -0.94408706     0.35918890     0.96278876
O       4.58920800     5.19316101     0.82813901    -0.54486607     2.05356862     2.77051741
O       4.29723402     0.64220999     1.38402701     1.34362996     0.70127585    -0.61222437
O       1.51798098     0.60331599     1.44084302    -0.44622849     0.69988025    -0.95882180
O       4.46450399     8.54410900     4.04280402    -0.52583784     0.24855738    -1.50720643
O       4.47325298     4.15445401     3.24063698    -2.18518884    -2.27277042    -1.72272897
O       1.46936499     8.37553102     4.02984399     0.41395908     2.73378739     1.16624640
O       1.51539399     3.93339000     3.43234699     0.22040739    -0.35815326    -0.01951802
O       2.86505300     6.21044299     3.60523401     0.06524048    -0.45789719    -0.38166292
O       3.00909499     1.85488300     3.09169797     0.55559786    -2.34105020     4.36632126
O       5.90609299     6.19526000     3.52860301     0.21776301     0.44877183    -1.31447466
O       2.82661002     7.66238000     1.62577200     1.71181335    -0.23362826    -1.01948006
O       3.00270301     2.89754199     0.96203800    -0.73916184     1.57265671    -1.63176537
O       5.82999598     7.82182899     1.46002300     0.08431242    -1.87396415     1.50381257
O       5.89948701     2.91729502     1.01487799     0.91837576     0.28462637    -0.48128138
