# total energy = -4988.13496221 eV

CRYSTAL
PRIMVEC
        2.91515354     0.00000000     0.00000000
        1.12433457     4.42706671     0.00000000
       -0.00000723    -0.00005986     4.60427861
PRIMCOORD
6 1
Ti      2.01974032     2.21350334     2.30213935     0.00000000     0.00000000     0.00000000
Ti      0.00000000     0.00000000     0.00000000     0.00000000     0.00000000     0.00000000
O       1.67669152     0.86275838     0.89730611    -2.37802448     1.10889741     1.16050204
O       2.36278907     3.56424830     3.70697260     2.37802448    -1.10889741    -1.16050204
O       0.34304573     1.35072073     3.19944639     2.37721664    -1.10698579     1.15854183
O       0.78128150     3.07628603     1.40483232    -2.37721664     1.10698579    -1.15854183
