# total energy = -19905.84889933 eV

CRYSTAL
PRIMVEC
        7.82573792     0.00000000     0.00000000
        0.00003080     5.55263436     0.00000000
        0.00000000     0.00000000    12.15829006
PRIMCOORD
24 1
Ti      2.83647198     3.29048596     4.51063889     0.56760286    -0.69194942     1.61054939
Ti      4.98929688     2.26214840     7.64765130    -0.56760286     0.69194942    -1.61054939
Ti      6.74920603     2.26215034     1.56845760     0.56793762     0.69202707    -1.61110423
Ti      1.07656282     3.29048429    10.58983266    -0.56793762    -0.69202707     1.61110423
Ti      2.83645658     0.51416891     1.56850634     0.56760286    -0.69194942    -1.61054939
Ti      4.98931228     5.03846565    10.58978392    -0.56760286     0.69194942     1.61054939
Ti      1.07654742     0.51416684     7.64760249    -0.56793762    -0.69202707    -1.61110423
Ti      6.74922143     5.03846772     4.51068763     0.56793762     0.69202707     1.61110423
O       2.47690637     1.95517698     6.20428237     0.70701481     1.49592520    -1.62816582
O       5.34886248     3.59745745     5.95400782    -0.70701481    -1.49592520     1.62816582
O       1.43603020     1.95519935     0.12517641    -0.70688162     1.49616379    -1.62852398
O       6.38973879     3.59743507    12.03311338     0.70688162    -1.49616379     1.62852398
O       5.34884715     0.82114020     0.12513694    -0.70701481    -1.49592520    -1.62816582
O       2.47692170     4.73149416    12.03315285     0.70701481     1.49592520     1.62816582
O       6.38972339     0.82111789     6.20432178     0.70688162    -1.49616379    -1.62852398
O       1.43604539     4.73151660     5.95396835    -0.70688162     1.49616379     1.62852398
O       0.28434605     3.37742698     3.28425749    -1.88316304     0.54374378     0.13848712
O       7.54142281     2.17520745     8.87403270     1.88316304    -0.54374378    -0.13848712
O       4.19722376     2.17515567     2.79492628    -1.88473682    -0.54370162    -0.13819273
O       3.62854509     3.37747876     9.36336371     1.88473682     0.54370162     0.13819273
O       0.28433065     0.60110973     2.79488741    -1.88316304     0.54374378    -0.13848712
O       7.54143821     4.95152463     9.36340252     1.88316304    -0.54374378     0.13848712
O       3.62852976     0.60116151     8.87407144     1.88473682     0.54370162    -0.13819273
O       4.19723909     4.95147292     3.28421868    -1.88473682    -0.54370162     0.13819273
