# total energy = -19958.36794198 eV

CRYSTAL
PRIMVEC
        7.60600008     0.00000000     0.00000000
        0.00000000     7.60600008     0.00000000
       -1.89786986    -1.89786986     4.85670466
PRIMCOORD
24 1
Ti      3.63214601     6.81416200     1.19168701     1.78116400    -1.69137590     0.97165058
Ti      3.78728099     2.98347599     1.21046401     1.69315973     2.70697745    -0.08977653
Ti     -0.05328201     6.55101300     1.32267298    -2.19027989     0.05756342    -0.63301843
Ti      0.12979601     2.68812602     1.29293301    -2.83061697    -0.14298244    -1.47761816
Ti      5.72949723     2.68577621     3.60740682     1.62611100     0.63940480     0.45229475
Ti      5.65973124    -1.14085577     3.62915484    -0.53209617    -0.79624343     0.77827064
Ti      1.99552921     2.93248420     3.54201379    -1.40690149    -1.25259873     1.58085673
Ti      1.95812723    -0.91218775     3.71323581    -0.52902164     1.82472082    -1.07730599
O       4.08997398     4.86527299     0.87058500    -1.47135752    -0.73936778    -1.32055455
O       3.69608602     1.22982798     0.83748401     0.55461287    -3.69358852    -2.02424441
O       0.10642702     4.84992601     0.62826802    -0.08231904    -1.84268795     1.12908057
O      -0.28824200     0.75339198     0.92720099     1.20608463     1.14837825    -0.72661588
O       5.52585824     4.60942024     3.80536282     0.01484915     1.45606023     1.04204639
O       5.91870525     0.80745024     4.21319083    -0.47235708     0.95514487    -0.14034835
O       1.81070220     4.83262821     4.09301479     0.76240642     1.71006372     0.10006454
O       1.57531924     1.12051124     3.72858280     1.48710914    -1.08253973     1.56481690
O       3.94060221     2.73478824     3.04752882    -2.30675913    -0.05929043     0.92562062
O       3.80691124    -0.62676277     3.21651983    -2.85983165    -0.27295715     0.06634143
O       0.12580623     3.11401020     3.21680082     0.08513543    -0.32508886     0.24480382
O      -0.19848375    -0.94000777     3.20574880     4.28234334    -0.49871886     0.85246448
O       5.65386701     6.41590601     1.77941401    -1.18652650     1.03133594    -1.90534293
O       5.89681302     2.84472799     1.70715698    -0.93137064    -0.06123342    -1.50154691
O       1.84506501     6.58465698     1.53634697     1.57782797     0.32892881     1.27731373
O       1.93056101     2.94879101     1.60789100     1.72863377     0.60009519    -0.08925279
