# total energy = -19517.10322845 eV

CRYSTAL
PRIMVEC
        7.60600008     0.00000000     0.00000000
        0.00000000     7.60600008     0.00000000
       -1.89786986    -1.89786986     4.85670466
PRIMCOORD
23 1
Ti      3.78776900     6.62231699     1.25817702     0.20236158    -0.94067675    -1.60608621
Ti      3.72600301     2.66479100     1.28540498    -0.11471984     1.38948997     0.80565856
Ti     -0.01437701     6.79267000     1.09124001    -0.18559438    -0.94545618     0.57316081
Ti     -0.08688598     2.92084299     1.18942001     0.96838348     1.02617805    -0.45115704
Ti      5.63760423     2.90013121     3.67782681    -0.58567078    -0.83869082     1.80166238
Ti      5.74318223    -0.86950977     3.50105679     0.95401924     0.79351729     0.73347327
Ti      2.03989321     2.74986720     3.73278981     0.84210807     0.49633262     0.93649228
Ti      2.00268824    -1.01577679     3.61317580    -1.38482856    -0.53284230    -0.38827683
O       4.10763701     4.55005502     0.98508202    -1.02834497     1.01471863    -0.70849834
O       3.41764698     0.87004799     0.58775902     0.23198738     0.18740701     1.69003481
O       7.10997600     4.86157198     0.84477798     1.37147681     0.59595237     0.43617110
O       0.06533598     1.13957802     0.61045300     0.51980012    -3.06217909     0.47895376
O       5.82010524     4.67264824     3.87982679     0.50090405     3.07678219     0.86983923
O       5.49255023     1.05798820     4.15697782     1.24233745    -0.86352434    -0.89269840
O       2.07218323     4.67442723     4.10961280    -0.52328834    -0.52563961     0.00563149
O       2.04359221     0.85317221     4.13337979    -0.36753085     0.35489207    -0.53006628
O       3.85659924     2.74966622     3.36988683    -1.77711143     0.05753231    -1.95736948
O       3.89135920    -0.96694977     3.25550183    -1.66513444    -0.40991010    -0.40473755
O       0.03555325    -0.86995078     3.07222483    -0.23123328     0.22055805    -0.37125664
O       5.55855800    -0.40472201     1.56500002     1.68055695    -0.76319420     0.32913475
O       5.85909999     2.57004801     1.92115298    -0.18866711    -0.28747155    -2.04311246
O       1.89039402     6.45154202     1.45721301    -0.09260371     0.31005202     0.78118371
O       1.83361102     2.99202897     1.73801399    -0.36920695    -0.35382763    -0.08813668
