# total energy = -19069.23756044 eV

CRYSTAL
PRIMVEC
        5.17600016     0.00000000     0.00000000
        0.00000000     5.50899976     0.00000000
        0.00000000     0.00000000     9.26300011
PRIMCOORD
22 1
Ti      1.89101702     3.34037202     3.19937999    -0.67789577     1.52594001     1.53985534
Ti      3.54599601     2.42646999     6.16013602    -1.81592173     0.05367617    -6.09555564
Ti      4.43670800     2.05871202     1.47232399     1.80265252     1.26138908     1.43698238
Ti      0.90599601     2.44613401     7.79476798     0.98192446    -0.58757442    -1.24643348
Ti      2.05823698     0.60898099     1.27394502    -4.45100263     0.45554977     1.90621016
Ti      3.30821302     0.01923099     8.02537798    -0.26597866    -0.83142771    -1.93612599
Ti      0.79139500     5.09074499     6.22946998     0.56406245     1.65182821    -2.11192883
Ti      4.32545499     5.09297198     3.48647399     1.39613473    -0.84299433     3.06348984
O       3.46714003     3.56607098     4.35491001    -0.35143831    -0.01725931     1.46480121
O       0.86891698     2.04428898     0.53364700     1.54178444     0.77724015    -2.67270798
O       4.48491102     4.37383000     6.97222598     1.52173754    -1.30292089     1.78012476
O       3.60826498     0.67525901     0.48624298     2.49591989    -0.41928075    -2.55222450
O       1.55132502     0.52476201     7.85195400    -1.28180390    -0.92882679     2.75303647
O       4.28662900     0.55367699     5.35139300     0.28127622     1.58185612    -1.27550855
O       0.88867699     4.56339801     4.41779399     0.48852727    -0.36844051     0.62076943
O       0.05531601     3.50126402     2.44779600     0.49460253     0.80487283    -0.25005607
O       3.82218102     2.12356200     7.78093100     2.69458422    -2.43394471     4.80672388
O       2.89530098     1.92048600     2.62848902    -0.69497561    -2.05049821    -0.93423099
O       2.21274499     3.70360701     6.91554400    -2.75593282     2.10011589     1.33932593
O       0.23651799     0.80930199     2.37800403     0.07503639    -1.43852787     1.17290376
O       1.86587300     1.54397300     6.04154099    -0.80576526     0.55293085    -1.72163368
O       2.86115503     4.64862201     2.32676300    -1.23752769     0.45629642    -1.08781744
