# total energy = -4985.53029935 eV

CRYSTAL
PRIMVEC
        3.14741737     0.00000000     0.00000000
        2.11225617     4.45627359     0.00000000
       -0.00001380    -0.00006627     5.06780779
PRIMCOORD
6 1
Ti      2.62982976     2.22810369     2.53390378     0.00000000     0.00000000     0.00000000
Ti      0.00000000     0.00000000     0.00000000     0.00000000     0.00000000     0.00000000
O       1.98535354     0.86844923     0.98764107    -1.71782742     1.12914125     0.91903088
O       3.27430593     3.58775815     4.08016650     1.71782742    -1.12914125    -0.91903088
O       0.64447045     1.35962771     3.52154590     1.71751452    -1.12864272     0.91853363
O       1.46777179     3.09657953     1.54626167    -1.71751452     1.12864272    -0.91853363
