# total energy = -19961.60746889 eV

CRYSTAL
PRIMVEC
        7.60600008     0.00000000     0.00000000
        0.00000000     7.60600008     0.00000000
       -1.89786986    -1.89786986     4.85670466
PRIMCOORD
24 1
Ti      3.78807899     6.63021300     1.23822597    -0.38375580     0.19740217     1.00775968
Ti      3.79808499     2.89034799     1.20482298    -0.54861243    -0.11520912    -0.25133417
Ti      0.01984600     6.61232702     1.17509301     0.34912637    -0.21113573     0.79903488
Ti      0.03736499     2.86741302     1.14129197     0.50223536     0.19901734     0.45297764
Ti      5.74783825     2.78663724     3.54123283    -0.54227337     0.90567734     0.57629576
Ti      5.73479022    -0.99386780     3.67615583    -0.43015677    -0.82400982    -0.62359508
Ti      1.83565423     2.89906322     3.63245780     0.95497929    -0.42154589    -0.04581579
Ti      1.85284720    -0.94841475     3.71010980     0.71639574     0.18930371    -0.22100131
O       3.64344098     4.75113899     0.78100799     0.54945035    -0.25687747     0.06956894
O       3.66267499     0.94537198     0.81899800     0.57456181     0.65589072     0.41471961
O       0.02645299     4.71283401     0.75118801    -0.07827649    -0.02625971    -0.32602063
O       0.04220998     0.90800900     0.79867003    -0.27416840     0.24287009     0.20539599
O       5.81406521     4.64875822     4.11510979    -0.46117535     0.68685992    -0.39423922
O       5.67446423     0.87861722     4.03335979     0.36442701     1.00811115    -0.45441591
O       1.90975423     4.71228822     4.19392381     0.33758186     0.50420663    -0.87550055
O       1.80178223     0.95976825     3.97249880     0.44336248     0.33141532     0.71517961
O       3.80032722     2.94218524     3.10919480     0.73820770    -0.51006952     0.95064543
O       3.79055025    -1.02631176     3.24634881     0.45465605    -0.11071071     0.53440373
O       0.06687425     3.01355024     3.12965480    -1.54448075    -0.80374797     0.46574214
O       0.06930920    -1.11455376     3.29348284    -1.95699178     0.18698458    -0.28092269
O       5.68474498     6.63154600     1.72846800     0.74211732     0.02700354    -0.68613539
O       5.75378102     3.02593198     1.62590001    -0.40282928    -0.81774841    -0.38174545
O       1.86244700     6.69880099     1.74941601     0.15926679    -0.27844261    -1.08627683
O       1.90585700     3.03257999     1.64286702    -0.26364847    -0.75898659    -0.56472065
