# total energy = -19942.16408215 eV

CRYSTAL
PRIMVEC
        4.96542021     0.00000000     0.00000000
        1.79471003     4.97063032     0.00000000
        0.00000000     0.00000000     9.03052876
PRIMCOORD
24 1
Ti      2.86326958     2.94559085     3.35026178     3.22211770    -2.94390393     1.15553981
Ti      3.89686084     2.02503934     5.68026708    -3.22211770     2.94390393    -1.15553981
Ti      5.01352150     2.02504103     1.16496660    -6.37194085     0.83080987     2.07455912
Ti      1.74660894     2.94558930     7.86556236     6.37194085    -0.83080987    -2.07455912
Ti      1.96591469     0.46027582     1.16500280     3.22209019    -2.94267802    -1.15541897
Ti      4.79421574     4.51035447     7.86552616    -3.22209019     2.94267802     1.15541897
Ti      0.84925395     0.46027399     5.68023088     6.37245250    -0.83121251     2.07446810
Ti      5.91087649     4.51035635     3.35029798    -6.37245250     0.83121251    -2.07446810
O       2.20353480     1.75024338     4.60820971    -0.94915085     0.17522023    -1.08413279
O       4.55659561     3.22038681     4.42231915     0.94915085    -0.17522023     1.08413279
O       1.54310748     1.75026343     0.09297438     1.43440125    -0.70361658    -0.66898664
O       5.21702299     3.22036680     8.93755423    -1.43440125     0.70361658     0.66898664
O       3.65924071     0.73507168     0.09294508     0.94898913    -0.17553133    -1.08412328
O       3.10088971     4.23555850     8.93758353    -0.94898913     0.17553133     1.08412328
O       4.31966808     0.73505162     4.60823901    -1.43474834     0.70391406    -0.66901877
O       2.44046228     4.23557857     4.42228985     1.43474834    -0.70391406     0.66901877
O       1.27204954     3.02341905     2.43937111    -0.15893666    -1.82966737    -1.91483467
O       5.48808087     1.94721114     6.59115775     0.15893666     1.82966737     1.91483467
O       3.36617417     1.94716483     2.07592202     1.91986633    -2.10940504    -2.77429822
O       3.39395624     3.02346535     6.95460669    -1.91986633     2.10940504     2.77429822
O       0.37469463     0.53810392     2.07589317    -0.15902716    -1.82959923     1.91402863
O       6.38543578     4.43252626     6.95463554     0.15902716     1.82959923    -1.91402863
O       2.49660133     0.53815022     6.59118650    -1.92012524     2.10974545    -2.77423471
O       4.26352908     4.43247996     2.43934231     1.92012524    -2.10974545     2.77423471
