# total energy = -19939.85280072 eV

CRYSTAL
PRIMVEC
        6.82552389     0.00000000     0.00000000
        0.00002576     4.35865272     0.00000000
        0.00000000     0.00000000    10.42447931
PRIMCOORD
24 1
Ti      2.47393919     2.58293355     3.86740749     0.30445704     0.66375110     0.34452127
Ti      4.35161001     1.77571912     6.55707193    -0.30445704    -0.66375110    -0.34452127
Ti      5.88658370     1.77572058     1.34479057     0.30435676    -0.66412365    -0.34360338
Ti      0.93896556     2.58293225     9.07968890    -0.30435676     0.66412365     0.34360338
Ti      2.47392653     0.40360724     1.34483239     0.30445704     0.66375110    -0.34452127
Ti      4.35162267     3.95504553     9.07964714    -0.30445704    -0.66375110     0.34452127
Ti      0.93895285     0.40360566     6.55703011    -0.30435676     0.66412365    -0.34360338
Ti      5.88659636     3.95504711     3.86744925     0.30435676    -0.66412365     0.34360338
O       2.16033035     1.53475567     5.31953202     1.49591105     0.15525895    -0.01639696
O       4.66521891     2.82389693     5.10494740    -1.49591105    -0.15525895     0.01639696
O       1.25248940     1.53477327     0.10732586    -1.49572054     0.15506355    -0.01652654
O       5.57305991     2.82387939    10.31715322     1.49572054    -0.15506355     0.01652654
O       4.66520625     0.64457052     0.10729203    -1.49591105    -0.15525895    -0.01639696
O       2.16034301     3.71408209    10.31718706     1.49591105     0.15525895     0.01639696
O       5.57304720     0.64455297     5.31956580     1.49572054    -0.15506355    -0.01652654
O       1.25250195     3.71409969     5.10491357    -1.49572054     0.15506355     0.01652654
O       0.24800264     2.65117967     2.81591193    -1.04949539     0.47355778     1.11275921
O       6.57754662     1.70747294     7.60856743     1.04949539    -0.47355778    -1.11275921
O       3.66077245     1.70743242     2.39636089    -1.04910381    -0.47334001    -1.11307442
O       3.16477676     2.65122024     8.02811831     1.04910381     0.47334001     1.11307442
O       0.24798993     0.47185325     2.39632761    -1.04949539     0.47355778    -1.11275921
O       6.57755927     3.88679935     8.02815158     1.04949539    -0.47355778     1.11275921
O       3.16476410     0.47189383     7.60860065     1.04910381     0.47334001    -1.11307442
O       3.66078510     3.88675878     2.81587866    -1.04910381    -0.47334001     1.11307442
