# total energy = -4988.85977965 eV

CRYSTAL
PRIMVEC
        4.08838433     0.00000000     0.00000000
       -0.00000910     4.08838433     0.00000000
       -2.04422423    -2.04422878     5.21768767
PRIMCOORD
6 1
Ti     -0.00018004     3.06644310     1.30442178    -0.00026431     0.00026431     0.00000000
Ti      2.04433093    -1.02228766     3.91326555     0.00026431    -0.00026431     0.00000000
O       0.00004084     1.02208914     0.84991863    -0.00029311    -0.00160385    -0.84891636
O       2.04410993     1.02206619     4.36776876     0.00029311     0.00160385     0.84891636
O      -0.00002309    -1.02207139     3.45876241    -0.00160385    -0.00029311    -0.84891636
O       2.04417381     3.06622665     1.75892498     0.00160385     0.00029311     0.84891636
