# total energy = -39031.10343936 eV

CRYSTAL
PRIMVEC
        5.93200024     0.00000000     0.00000000
        0.00000000     9.29399984     0.00000000
        0.00000000     0.00000000     9.29399984
PRIMCOORD
46 1
Ti      4.37592702     6.75822902     7.08274703     2.37746938     2.12497847    -1.29856493
Ti      4.41321698     7.08340897     2.19041302    -0.12744166     0.15247367    -1.82988385
Ti      4.60970800     2.57254101     6.64080602    -2.83591344    -1.02984753     1.86705096
Ti      4.63701001     2.13367098     2.61991899    -0.55150595     0.53169173    -1.48874770
Ti      1.51722600     6.96066202     7.04889402    -2.30162978     3.14905284    -1.86810280
Ti      1.39642097     6.80380198     2.53057101     1.73082075     0.92434150    -2.53623789
Ti      1.52873698     2.22831899     7.24084302     1.12641228    -1.35942425    -1.28678902
Ti      1.75419401     2.58718102     1.92640898    -1.82751972    -1.19292700     1.46354522
Ti      2.81573902     4.73890499     4.73411202     2.77907636    -1.70879462    -2.05539771
Ti      2.88998598     4.82555401     8.98839098     1.94455304    -0.25899400     2.19050692
Ti      2.96960800     9.25167402     4.51347400    -0.30948920    -0.49734487     0.43924537
Ti      2.96748901     0.05252100     9.27480700    -0.68207998    -1.17773126    -0.30192887
Ti      5.89102001     4.69350597     4.65604901    -0.20926448    -0.51278692    -1.17497787
Ti      5.90536400     4.60444100     9.24522002    -1.85642047     0.99965402     1.86271377
Ti      5.92548702     9.15701400     5.00412101    -0.24188613    -1.77103874     0.06637537
Ti      5.82153899     0.15672500     9.21368698     0.74507229    -2.49443070     0.81694056
O       4.45034702     5.37148702     5.68249603    -0.40248398     0.41287973     0.38318553
O       4.52083798     5.81892200     0.58214699    -0.19760555    -1.99826880    -0.10164140
O       4.42806400     0.82506999     5.75133400     0.49428602    -0.01725365    -2.00265511
O       4.42254801     0.92982798     0.92510698    -0.55373946     0.24964084     1.38532735
O       1.53193798     5.55779202     5.50418298    -1.81989280     2.38065575     1.95532442
O       1.50096502     5.40298799     0.80240797     0.59550808    -0.15176431     1.25726863
O       1.44882799     0.83241402     5.65487901    -0.16018056    -0.27046498    -0.35260996
O       1.30248900     0.91446300     0.97513201     1.66297266     2.09211873     0.35762644
O       4.43799200     8.29778101     8.39015102    -0.32231027     1.03345196     0.42622478
O       4.61102698     8.26725198     3.68296603    -1.02873115     2.38633763     0.97706996
O       4.45365602     3.84312898     8.25587700    -0.86071721    -0.10736545    -0.12287229
O       4.57544103     3.47710798     3.86313701     0.02549893     0.23221158     1.23095800
O       1.49821002     8.62293498     8.29498299    -0.30974683    -0.78406051    -0.71727660
O       1.38494201     8.13129201     3.77593099     0.66923166     1.64100232     1.29778666
O       1.49778398     3.72120702     8.38264401     0.57067404    -1.11916537     0.46563775
O       1.43077802     3.99742802     3.74205703     0.11048163    -2.20357944    -1.45468057
O       2.87182599     6.41108901     8.05762302    -0.07902546    -1.96983033     1.18849853
O       3.20145902     5.78183202     3.13886100    -1.34514639     1.12889854     0.23924921
O       3.07264098     1.50505799     8.00955902    -1.04021036     0.16946276    -0.23528714
O       2.71817599     1.33290700     3.23426102     0.89517489     0.86436561    -0.52087921
O       0.25419400     5.84289198     7.75558801    -1.00830836     0.52740365     0.35178258
O       5.77657099     6.03469000     3.03460800     0.08638036    -1.75702673     1.82525484
O       5.64637100     1.48567698     7.95558997     1.93221585     1.34125271    -1.52318301
O       3.06504702     7.79045497     6.03463200    -0.12059867    -0.70466945    -0.00213170
O       2.77442499     7.69764998     1.39911703     0.82059436     1.19429894     0.13951094
O       2.86475502     3.17668998     6.02798299     0.39371806    -0.13698020     0.40969207
O       5.81204999     7.62203902     6.09469600     0.67712058     1.69866267    -0.46824974
O       0.06119702     7.86357102     1.22747902    -0.54368568    -0.69499670     1.73658414
O       0.21303898     3.37434700     6.27227402     0.18277722     0.16246910    -1.85689356
O       5.81552902     3.37901497     1.65606100     0.91549561    -1.47855842    -1.13436908
