# total energy = -19074.48336399 eV

CRYSTAL
PRIMVEC
        7.60600008     0.00000000     0.00000000
        0.00000000     7.60600008     0.00000000
       -1.89786986    -1.89786986     4.85670466
PRIMCOORD
22 1
Ti      3.93111100     6.81078400     1.08021100    -3.64762669    -0.47635797     0.65621570
Ti      3.82469901     3.00782200     1.16763500    -0.71261056     0.29228234    -0.21176899
Ti      0.17897298     6.62818901     1.27872502    -0.53409417    -0.14256721    -0.99642163
Ti     -0.03830402     2.75548701     1.28911102     1.39743494     0.49066000    -1.80394038
Ti      5.66894824     2.97736420     3.55925481     1.08678874     0.06720198     1.40246145
Ti      5.55450525    -1.08077775     3.69795381     1.20732287    -0.19443024     1.16269468
Ti      1.72729625     2.96080921     3.62100683     0.56264243    -1.25237247    -0.79343579
Ti      1.61593121    -0.86032076     3.82258182     0.63546201     1.57203785    -0.48525605
O       3.37564703     4.88333699     0.68166899     1.12408492    -0.29424950     0.50856465
O       3.62469700     1.10033699     0.99604901     1.30265273    -0.72277542    -1.02148347
O       0.14468098     4.67860498     0.76503801    -0.58110604     0.21812810    -0.36016592
O       7.15352200     0.93145002     0.81435500     0.50177565    -0.66429797    -0.81747535
O      -1.51074178     4.75180220     4.18423283    -0.81518090     0.06090174    -0.30636994
O      -0.13238978    -0.72302678     3.71392379    -1.54172196     0.26057883    -2.02597682
O       1.66672323     4.86540820     3.96660683     0.72824390    -0.56199065    -0.11919227
O       1.94798422     1.02029221     4.01320380     0.76946384     0.49144650     0.84867339
O       3.91620725     3.04673320     3.14821881    -1.48222687     0.01072793     0.41747197
O      -0.08061777     2.49449224     3.11533780    -0.11787947     0.29183960     1.53970390
O       5.51383401     6.55030602     1.69510200     2.71328720    -0.32213672     0.97796496
O       5.78722401     3.05773898     1.43295902    -2.94501516     0.54329847     0.78501182
O       1.89003000     6.85489801     1.82599701    -0.07652917    -0.33648451     0.04450941
O       1.86108501     2.75323398     1.61902499     0.42483125     0.66855958     0.59821391
