# total energy = -19948.92065969 eV

CRYSTAL
PRIMVEC
        5.14932466     0.00000000     0.00000000
        1.86118077     5.15472774     0.00000000
        0.00000000     0.00000000     9.36499279
PRIMCOORD
24 1
Ti      2.96931660     3.05468680     3.47434555     2.32407140    -2.92797285     1.14838828
Ti      4.04118901     2.10004080     5.89064735    -2.32407140     2.92797285    -1.14838828
Ti      5.19920748     2.10004255     1.20811351    -4.73505615     0.22948647     1.50767566
Ti      1.81129816     3.05468520     8.15687949     4.73505615    -0.22948647    -1.50767566
Ti      2.03872634     0.47732307     1.20815106     2.32407140    -2.92797285    -1.14838828
Ti      4.97177929     4.67740463     8.15684194    -2.32407140     2.92797285     1.14838828
Ti      0.88070780     0.47732117     5.89060980     4.73505615    -0.22948647     1.50767566
Ti      6.12979784     4.67740658     3.47438309    -4.73505615     0.22948647    -1.50767566
O       2.28514720     1.81506721     4.77888414     0.00088986     0.88582019    -1.02401549
O       4.72535841     3.33966039     4.58610875    -0.00088986    -0.88582019     1.02401549
O       1.60025960     1.81508800     0.09641788     0.90786432    -0.70390094     0.03540282
O       5.41024607     3.33963964     9.26857476    -0.90786432     0.70390094    -0.03540282
O       3.79476814     0.76229656     0.09638749    -0.00088986    -0.88582019    -1.02401549
O       3.21573747     4.39243104     9.26860515     0.00088986     0.88582019     1.02401549
O       4.47965579     0.76227576     4.77891453    -0.90786432     0.70390094     0.03540282
O       2.53084977     4.39245185     4.58607836     0.90786432    -0.70390094    -0.03540282
O       1.31916249     3.13539753     2.52971819     0.07064083    -0.50890147    -0.60629566
O       5.69134312     2.01933007     6.83527470    -0.07064083     0.50890147     0.60629566
O       3.49084729     2.01928205     2.15280802     1.69181350    -0.88327299    -1.63652474
O       3.51965832     3.13544555     7.21218471    -1.69181350     0.88327299     1.63652474
O       0.38857221     0.55803370     2.15277810     0.07064083    -0.50890147     0.60629566
O       6.62193340     4.59669390     7.21221464    -0.07064083     0.50890147    -0.60629566
O       2.58906805     0.55808171     6.83530452    -1.69181350     0.88327299    -1.63652474
O       4.42143756     4.59664589     2.52968832     1.69181350    -0.88327299     1.63652474
