# total energy = -19941.07351184 eV

CRYSTAL
PRIMVEC
        6.80093891     0.00000000     0.00000000
        0.00002677     4.82550367     0.00000000
        0.00000000     0.00000000    10.56613303
PRIMCOORD
24 1
Ti      2.46502922     2.85958899     3.91995999     0.45451310     0.04611121     0.48101090
Ti      4.33593657     1.96591468     6.64617315    -0.45451310    -0.04611121    -0.48101090
Ti      5.86538143     1.96591636     1.36306434     0.45697648    -0.04654855    -0.48022646
Ti      0.93558436     2.85958754     9.20306886    -0.45697648     0.04654855     0.48022646
Ti      2.46501583     0.44683727     1.36310670     0.45459589     0.04761299    -0.48094277
Ti      4.33594995     4.37866658     9.20302650    -0.45459589    -0.04761299     0.48094277
Ti      0.93557097     0.44683547     6.64613074    -0.45666589     0.04778140    -0.47987447
Ti      5.86539481     4.37866837     3.92000235     0.45666589    -0.04778140     0.47987447
O       2.15254958     1.69914190     5.39181682     1.00624068     0.70649802    -0.58990487
O       4.64841620     3.12636183     5.17431632    -1.00624068    -0.70649802     0.58990487
O       1.24797862     1.69916134     0.10878427    -1.00683820     0.70686363    -0.59108835
O       5.55298728     3.12634239    10.45734853     1.00683820    -0.70686363     0.59108835
O       4.64840288     0.71360994     0.10874996    -1.00653841    -0.70644068    -0.58965290
O       2.15256291     4.11189373    10.45738283     1.00653841     0.70644068     0.58965290
O       5.55297390     0.71359055     5.39185107     1.00672456    -0.70720713    -0.59133929
O       1.24799183     4.11191324     5.17428202    -1.00672456     0.70720713     0.59133929
O       0.24711025     2.93514488     2.85417615    -1.35304791     0.37379097     0.55212892
O       6.55385553     1.89035885     7.71195699     1.35304791    -0.37379097    -0.55212892
O       3.64758731     1.89031386     2.42892403    -1.35124377    -0.37333537    -0.55098093
O       3.15337847     2.93518987     8.13720894     1.35124377     0.37333537     0.55098093
O       0.24709687     0.52239298     2.42889025    -1.35218582     0.37331223    -0.55084414
O       6.55386892     4.30311069     8.13724267     1.35218582    -0.37331223     0.55084414
O       3.15336515     0.52243798     7.71199066     1.35195828     0.37337703    -0.55201065
O       3.64760064     4.30306575     2.85414243    -1.35195828    -0.37337703     0.55201065
