# total energy = -19077.21178442 eV

CRYSTAL
PRIMVEC
        5.17575250     0.00001323     0.00000000
        0.00001429     5.50856584     0.00000000
        0.00000000     0.00000000     9.26345890
PRIMCOORD
22 1
Ti      1.90750418     3.42750625     3.29803531     0.05239833    -0.03708201     0.03924482
Ti      3.40853247     2.26552802     5.92300052     0.04015190    -0.00371936     0.00913565
Ti      4.47182042     2.24608138     1.12818982    -0.04397179     0.00786861     0.04227384
Ti      0.74511858     3.28381726     8.08861757    -0.00960462     0.00742612     0.04021978
Ti      1.81046246     0.63039019     1.23688175    -0.01164839    -0.02310163     0.03548021
Ti      3.19920782     4.98276653     8.14214567    -0.04516067     0.00850341     0.00091377
Ti      0.79484014     0.56544150     5.78912640     0.00163214    -0.00145087    -0.02668755
Ti      4.46427891     4.93989313     3.50428512     0.02105323     0.00069137    -0.02985283
O       3.46243419     3.48779471     4.52473468    -0.01267040     0.02359322    -0.00118785
O       0.95151813     1.94917706     0.13196857    -0.01655328     0.03027706    -0.00728522
O       4.14746616     3.62025935     9.14104172     0.01779821    -0.05182472    -0.01847775
O       3.56191160     0.83074974     0.07413089    -0.00779147     0.00266135    -0.00113309
O       1.55789378     4.73353269     9.11829387     0.01512941     0.03453250    -0.04716716
O       4.28343528     0.81483057     4.72619073    -0.02251284     0.07862539    -0.00193938
O       0.93645163     4.59525904     4.59625904     0.01072228    -0.01636945    -0.05561401
O       0.17103703     3.30158080     2.50361001    -0.01636379     0.03364804     0.01209087
O       5.09795088     2.03739930     6.79716161    -0.02603731    -0.04480612     0.00469227
O       2.73523906     2.09305220     2.16754759     0.01233359    -0.01934782    -0.00090451
O       2.34908010     3.39037452     7.06225531     0.00811235    -0.01960133    -0.01458227
O       0.19809068     0.52580668     2.18756707    -0.00624033    -0.00465216    -0.00461539
O       2.45090258     0.65558292     6.69439290     0.03467211     0.00225126    -0.01850835
O       2.77814397     4.87422270     2.46498003     0.00455111    -0.00812238     0.04390443
