# total energy = -19959.04028102 eV

CRYSTAL
PRIMVEC
        5.93400000     0.00000000     0.00000000
        0.00000000     9.29699974     0.00000000
        0.00000000     0.00000000     4.64899994
PRIMCOORD
24 1
Ti      4.45829002     7.00914900     2.31487202    -0.35625527    -0.29349591    -0.06979673
Ti      4.48355702     2.13879802     2.44312199    -2.19534856     0.78083301    -0.31400637
Ti      1.41142701     6.94466801     2.36954597     0.43015832    -0.62325389    -0.39422277
Ti      1.38557501     2.42264600     1.99853800     2.35369566     1.25523077     1.60860332
Ti      2.93624501     4.48306102     0.07732401    -1.10676211     2.25100679    -0.63777112
Ti      3.08347901     9.28822599     4.63910502     0.86517011    -1.95936748     0.45829237
Ti      5.85256597     4.60954401     0.09697898     0.96141373     2.09638265    -0.77769523
Ti      0.10174697     0.25498400     4.50406200    -0.71489987    -2.14030971     1.68358571
O       4.43334000     5.47650500     0.98515299    -0.14853551     0.70660137     0.29433049
O       4.51494601     0.96103902     0.87256502    -1.10935815    -0.12776793     0.23137957
O       1.43229702     5.56024402     0.98572799     0.06990009    -0.70004660    -0.31110900
O       1.61905299     1.14609098     0.78674300    -0.55370990    -1.37093200    -0.53330150
O       4.53125002     8.28593401     3.80347302    -0.70583159     1.99490683     0.60782984
O       4.38652501     3.78403798     3.84227198     0.52517527    -1.53167383    -1.69511532
O       1.18383200     8.40190299     3.85231502     2.94929065    -0.51648005    -0.50173580
O       1.37672701     3.67121803     3.92973101     0.90747145    -0.48980202    -0.96800579
O       2.94499999     6.25680998     3.26226799     0.40616554    -0.93755517     0.51658624
O       3.05413898     1.33338898     3.25278202    -0.49744385     0.20914286    -0.72180843
O       0.07903199     5.95736402     3.22352799    -1.00741156     0.21566653     0.32561954
O       0.15356602     1.42445297     3.06454801    -0.34327994    -0.25623341     0.63908315
O       2.98857398     7.90890601     1.37722697     0.01191038     0.86631965    -0.29301588
O       3.07184002     3.21810403     1.37454098    -0.46138489    -1.00608255     1.97665893
O       0.04821599     7.97803799     1.55799101    -0.62666832     0.00872530    -0.32218043
O       5.77573002     3.12455702     1.45080097     0.34653855     1.56818453    -0.80220480
