# total energy = -4983.16008607 eV

CRYSTAL
PRIMVEC
        3.54777502     0.00000000     0.00000000
        1.66953504     3.13039300     0.00000000
       -2.60868836    -1.56521650     4.68540270
PRIMCOORD
6 1
Ti      1.25206757     2.34791531     1.17135036     0.00051371    -0.00051371     0.00000000
Ti      1.35655400    -0.78273892     3.51405176    -0.00051371     0.00051371     0.00000000
O       0.41742052     0.78259426     0.76321371     0.00088652     0.00083509    -3.23979456
O       2.19120089     0.78258211     3.92218846    -0.00088652    -0.00083509     3.23979456
O      -0.41738681    -0.78257399     3.10591506     0.00083509     0.00088652    -3.23979456
O       3.02600815     2.34775029     1.57948706    -0.00083509    -0.00088652     3.23979456
