# total energy = -19516.75836101 eV

CRYSTAL
PRIMVEC
        5.93400000     0.00000000     0.00000000
        0.00000000     9.29699974     0.00000000
        0.00000000     0.00000000     4.64899994
PRIMCOORD
23 1
Ti      4.50887201     6.87616798     2.28915702     0.44010360     1.08840776     0.02162916
Ti      4.43703498     2.30499799     2.34836603     0.51139338    -0.01923032     0.60981679
Ti      1.46780598     7.05674299     2.35391900     0.72143202     0.08357040    -0.30713484
Ti      1.42181698     2.41323199     2.30794800     0.05738447    -0.86262600     0.12435788
Ti      2.96443100     4.62593702     0.08526199    -0.37436484    -0.09143720    -0.01084517
Ti      3.02246201     0.02766697     4.60349800    -1.12446647    -1.41126696    -0.64081890
Ti      0.03032000     4.65296798     0.01036801    -0.16533536     0.10963265    -0.14732709
Ti      0.00666298     9.27120802     0.11983298     0.81097355     0.17251029    -1.47144134
O       4.33844302     5.65630900     0.81491899     0.61997162    -0.46313864    -0.42626926
O       4.37740401     0.89455297     0.75957102     0.76027754     0.25929354     1.32449940
O       1.51947601     5.61553500     0.96967302     0.15315630    -1.06761293    -0.99401790
O       1.46942002     0.97040302     1.01987400    -0.03796004    -0.72155080    -1.00593343
O       4.47697199     8.26563598     3.49721301    -0.88490796     1.06768852     2.29660738
O       4.50721600     3.69372298     3.61500501    -0.51832251     1.53625682     0.85592365
O       1.45313099     8.34025998     3.68694300     0.39595235     0.89399244     1.12424381
O       1.40823501     3.66853801     3.89520198     0.40916988     0.15342241    -1.68718680
O       2.96865299     1.58810099     3.27296902    -1.02354858    -1.12242476    -0.05878264
O       0.06913299     6.01833001     3.26679198    -0.41087221     0.05042347    -0.59598810
O       5.80916402     1.21965402     3.26202198     0.71194387     1.72770123    -1.12979997
O       2.96584100     7.83721599     1.32684602     0.15639435     0.10511239     0.45164812
O       3.03551898     3.31533098     1.24267699    -0.66650398    -1.65841255     2.02639463
O       0.10866200     7.80737399     1.43316302    -1.42840055     0.80661861    -1.19424624
O       5.81307797     3.29788401     1.36029600     0.88652955    -0.63693011     0.83467167
