# total energy = -19958.57651040 eV

CRYSTAL
PRIMVEC
        7.60600008     0.00000000     0.00000000
        0.00000000     7.60600008     0.00000000
       -1.89786986    -1.89786986     4.85670466
PRIMCOORD
24 1
Ti      3.99047500     6.57921101     1.15507403    -1.48904389    -0.46654407    -0.41259973
Ti      3.88571002     2.59133898     1.15068101    -0.87215605     0.88755645    -0.48652489
Ti      0.01862201     6.69711498     1.23460302     0.85047445     0.46903804     0.28524112
Ti     -0.02752500     2.97013702     1.35552801    -0.20068882    -1.44765477     1.24807770
Ti      5.56963321     2.88557423     3.69436683     0.02707321     0.79342833    -1.06625590
Ti      5.62861022    -0.74488879     3.66166881     1.03704636    -0.14773436     0.89936091
Ti      1.86977024     2.89207120     3.63243383    -0.32474639    -1.54048654     1.00580873
Ti      2.02938925    -1.03345676     3.44084579    -1.49278022     1.41591603     1.28336199
O       3.80173102     4.66518298     0.89700502     0.12364620     1.45008498    -1.19182503
O       4.24823798     0.80997299     0.69946601    -0.79107603    -0.66115145    -0.28515550
O      -0.32154000     4.77467801     0.97076498     1.32363217     1.27091091    -1.04304629
O      -0.27465998     1.19715198     0.95192701     0.79463829    -2.54131325    -2.38472863
O       5.74940223     4.77561322     4.08780583    -0.38729673     1.16065296     1.14421358
O       5.30915920     1.11140521     3.93863182     1.69982481    -2.66042787     1.37050005
O       1.71788425     4.75681923     3.71392480     1.01113529    -1.53403667     1.75384088
O       2.00461820     0.78706522     4.05692982    -0.45026872     1.14699551     1.02995885
O       3.65508823     2.67506720     3.18746583     1.43556930     1.22648454     0.50335277
O       3.86006424    -0.81959179     3.05397282     1.49749254    -0.82368971     0.48323902
O      -0.09182776     2.63864621     3.30639180    -0.82123996     0.84389833    -0.05405335
O       0.18616424    -0.89502278     3.32900381    -2.97120057     0.54263204    -1.25685031
O       5.79419100     6.70133501     1.71099002     0.44789868    -0.23154669     0.28138780
O       5.58797100     2.88447603     1.69854800     0.82245918     0.50071867     0.83234765
O       2.01516502     6.77068199     1.55794497    -0.93175502    -0.21987183    -1.17844860
O       1.81776502     2.60764002     1.81192402    -0.33863832     0.56614067    -2.76120307
