# total energy = -4987.43405991 eV

CRYSTAL
PRIMVEC
        3.24995470     0.00000000     0.00000000
        1.00835472     4.99135637     0.00000000
       -0.00000672    -0.00006667     5.11810114
PRIMCOORD
6 1
Ti      2.12915130     2.49564485     2.55905068     0.00000000     0.00000000     0.00000000
Ti      0.00000000     0.00000000     0.00000000     0.00000000     0.00000000     0.00000000
O       1.82148947     0.97272890     0.99744259     0.57169606    -0.43797653    -0.61813894
O       2.43681312     4.01856081     4.12065877    -0.57169606     0.43797653     0.61813894
O       0.30765907     1.52288895     3.55649419    -0.57160195     0.43847250    -0.61782218
O       0.70068892     3.46840063     1.56160717     0.57160195    -0.43847250     0.61782218
