# total energy = -19070.56233624 eV

CRYSTAL
PRIMVEC
        5.17600016     0.00000000     0.00000000
        0.00000000     5.50899976     0.00000000
        0.00000000     0.00000000     9.26300011
PRIMCOORD
22 1
Ti      1.74293201     3.23270498     3.16756998    -0.48755102     2.75410811    -0.50477510
Ti      3.38272498     2.60424598     5.93499602     0.16152447    -2.06019436    -0.56349449
Ti      4.49924802     2.15386301     1.40731102    -1.47847203    -0.97169892     2.10934590
Ti      0.97791400     2.41232398     7.88708999    -1.68726805     1.11103657    -3.19705561
Ti      1.79933098     0.48247498     1.10080102     1.08879677     0.78303696     2.55635472
Ti      3.41665498     5.44996898     7.82043101     0.85063643     0.76998706     0.45100303
Ti      0.83248101     5.33198097     6.53727498    -0.43142407    -0.37955230    -1.45048967
Ti      4.47333299     5.00221100     3.67526999     1.23044070     1.47047178     0.57693417
O       3.36874602     3.60927502     4.14291700    -0.29732377    -1.36957317     2.55664937
O       0.85861501     2.09205802     0.38449500    -0.00159357     0.86576146    -0.34942642
O       4.83529198     4.11752998     7.72447700     0.58055402     1.42743278    -1.08570091
O       3.60214600     0.55041499     0.38320900     2.13922110     1.56384502    -0.53652155
O       1.66792700     5.43489902     8.74647898    -1.70765176    -1.49503225    -4.62229832
O       4.71187901     0.85901200     5.32422800    -1.69047602    -1.34299104    -0.47977060
O       0.88881198     4.59726303     4.41675199     0.67205885    -1.33316325     1.93140930
O       0.09610002     3.73684400     2.30349899    -0.86167752    -0.74803729    -0.92539591
O       4.20610600     1.89371201     7.40239998     0.83815963    -1.38447066     1.95108776
O       2.59750299     2.03329500     2.14875301     1.14887062    -0.70153913    -0.35410969
O       2.28677302     3.77810299     6.83107599    -0.86902805     2.39417564     1.06253551
O       5.14344301     0.94947099     2.67576503     0.41805382     1.35662097    -2.03199243
O       1.91417302     1.41775502     6.21300701     0.28839124    -0.78505913     0.86666289
O       2.51751298     4.76062502     2.12267002     0.09575820    -1.92516511     2.03904806
