# total energy = -19516.94921277 eV

CRYSTAL
PRIMVEC
        5.17600016     0.00000000     0.00000000
        0.00000000     5.50899976     0.00000000
        0.00000000     0.00000000     9.26300011
PRIMCOORD
23 1
Ti      1.84892399     3.13269598     3.42305602     0.41774811     0.53204834     2.23541099
Ti      3.24667198     2.26264899     5.96378300     1.67179334     1.09246574    -3.04999951
Ti      4.42643900     2.00021301     1.43448602     0.11712999    -0.08975724    -0.73628580
Ti      0.94353399     3.34323799     7.71570800    -1.18522140     1.00556936     0.30170930
Ti      2.00883601     0.22716002     1.45032598     0.42605175     0.37979270    -2.06087622
Ti      3.18764898     5.32895699     7.91484100     0.82854499    -0.63247747     0.69185892
Ti      0.69334502     0.56691002     5.95459299    -1.28816584    -0.84159205    -3.59364045
Ti      4.53547603     4.79975900     3.37734902    -0.02940058     1.60801017     4.08404488
O       1.80739199     1.89431999     4.78496299    -1.29165920    -1.07735382    -0.00847025
O       3.51034603     3.45276900     4.38120699     0.37690124     0.20963729     0.45205487
O       0.01798499     2.65596401     9.10227998     0.31890021    -0.07158057     1.23215511
O       3.44100798     0.89806602     0.21589199    -0.04949607    -0.75540710    -0.49382991
O       1.78637201     4.71779701     8.96929800    -0.32528581    -0.64743487     1.18220241
O       4.35526699     0.69110898     4.83400200    -1.25436791     0.58427235    -0.10051989
O       0.97596203     4.69925199     4.47430901     0.48445901    -0.79800670    -0.01309438
O       0.05554001     3.37497100     2.50837298     1.77616397    -1.31067817    -1.21267720
O       5.06602702     2.26455700     6.54290701    -0.03203390     0.32413421     0.50435164
O       2.62713401     1.85378300     2.22811901     0.27436355     0.83879161    -0.15362578
O       2.59129199     3.85785598     6.74053900    -0.14120067    -0.23523803     0.84815685
O       0.30941899     0.62534400     2.18786598    -0.51283474     0.18232136    -0.82051286
O       4.99236899     4.97018900     7.17645701     0.20985326    -1.02548693     1.22574406
O       2.20755101     1.11918602     7.10037900    -0.21526389     0.86073084     0.45821883
O       2.87456401     4.53974998     2.41653998    -0.57698019    -0.13276025    -0.97237564
