# total energy = -19932.81467720 eV

CRYSTAL
PRIMVEC
        6.08910774     0.00000000     0.00000000
        0.64648233     6.44832618     0.00000000
        0.00000000     0.00000000    10.91184371
PRIMCOORD
24 1
Ti      2.59011358     3.82127216     4.04821629    -0.01790748    -1.33016534     0.73657299
Ti      4.14547668     2.62705407     6.86362780     0.01790748     1.33016534    -0.73657299
Ti      5.51483998     2.62705626     1.40766217     0.04427004     0.29636654    -0.44946988
Ti      1.22075029     3.82127028     9.50418210    -0.04427004    -0.29636654     0.44946988
Ti      2.26687255     0.59710913     1.40770594    -0.01790748    -1.33016534    -0.73657299
Ti      4.46871773     5.85121736     9.50413833     0.01790748     1.33016534     0.73657299
Ti      0.89750917     0.59710675     6.86358408    -0.04427004    -0.29636654    -0.44946988
Ti      5.83808104     5.85121967     4.04826006     0.04427004     0.29636654     0.44946988
O       2.15487854     2.27056528     5.56823046     1.55899952     1.60457131    -0.27352768
O       4.58071173     4.17776101     5.34361362    -1.55899952    -1.60457131     0.27352768
O       1.34498849     2.27059136     0.11234355    -1.11388638     0.81675467     0.37975439
O       5.39060184     4.17773500    10.79950028     1.11388638    -0.81675467    -0.37975439
O       4.25747068     0.95359773     0.11230817    -1.55899952    -1.60457131    -0.27352768
O       2.47811959     5.49472857    10.79953566     1.55899952     1.60457131     0.27352768
O       5.06736079     0.95357171     5.56826590     1.11388638    -0.81675467     0.37975439
O       1.66822942     5.49475459     5.34357824    -1.11388638     0.81675467    -0.37975439
O       0.61445855     3.92223767     2.94756128     0.42913553     0.42046628     0.81696242
O       6.12113166     2.52608863     7.96428280    -0.42913553    -0.42046628    -0.81696242
O       3.51904654     2.52602858     2.50839545     0.57003384     0.87869463     0.12440827
O       3.21654372     3.92229766     8.40344851    -0.57003384    -0.87869463    -0.12440827
O       0.29121750     0.69807438     2.50836057     0.42913553     0.42046628    -0.81696242
O       6.44437270     5.75025186     8.40348333    -0.42913553    -0.42046628     0.81696242
O       2.89330267     0.69813443     7.96431762    -0.57003384    -0.87869463     0.12440827
O       3.84228760     5.75019187     2.94752647     0.57003384     0.87869463    -0.12440827
