# total energy = -19960.89723554 eV

CRYSTAL
PRIMVEC
        7.60600008     0.00000000     0.00000000
        0.00000000     7.60600008     0.00000000
       -1.89786986    -1.89786986     4.85670466
PRIMCOORD
24 1
Ti      3.82846299     6.57977903     1.24295603     1.01835752     0.52431215    -1.76565330
Ti      3.75961402     2.80023598     1.20862401     2.22929536    -0.75839550     0.15127940
Ti     -0.00176502     6.78425502     1.20448399    -1.00119540    -1.91603718    -0.27668551
Ti      0.08893797     2.86650802     1.21964598    -2.67863180     1.92142107     0.35011213
Ti      5.69106023     2.87501021     3.65635582    -1.16014877     1.60068946    -0.49094127
Ti      5.69378020    -0.83416480     3.66179481     0.14490460    -0.99844920    -0.95286687
Ti      1.88764722     2.74100523     3.56866882     1.21546530     0.61199863     2.29639835
Ti      1.92920224    -1.01739978     3.54680380    -0.17625561    -0.60823736     2.63255659
O       3.94103799     4.59216599     0.79839099    -1.20336620     1.65069384     0.00828924
O       3.89537100     0.81416402     0.72530600    -0.58661052     0.42431368     0.26848472
O      -0.08514398     4.83837502     0.76156099     0.85839550    -0.81276355     1.10114553
O      -0.10351998     1.01950098     0.79899198     0.51829757     0.57920779    -0.07339602
O       5.45870723     4.79924321     4.13062283     0.80234543     1.31591551    -0.38366581
O       5.59480723     1.08750825     4.11169882     0.81638855    -2.58448517     0.14614233
O       2.11295322     4.64143223     4.05803580    -0.83613334     0.15208055    -0.36317566
O       1.88339221     0.87735720     4.06552683    -0.51054286    -0.11156972    -0.31222100
O       3.77121723     2.67872122     3.25460879    -0.98122280     0.31379066    -0.51424242
O       3.83278521    -0.83902577     3.14158579     0.27599877    -0.11701609     0.67555632
O      -0.08884479     3.04854024     3.21023082     1.42805062    -0.49880937    -0.28914328
O       0.00565923    -0.90308379     3.28391780    -0.85588122    -0.09405742    -0.00244538
O       5.74380100     6.69900499     1.59711298    -0.14154905    -0.11215825     1.20607126
O       5.58357401     2.87076399     1.69812498     1.34729018    -0.45039342    -0.42545063
O       1.89652099     6.64586400     1.70720402    -0.01940232    -0.16134450    -1.93121544
O       1.87962002     2.69587302     1.67725799    -0.50384950     0.12929311    -1.05493276
