# total energy = -19959.49136189 eV

CRYSTAL
PRIMVEC
        7.60600008     0.00000000     0.00000000
        0.00000000     7.60600008     0.00000000
       -1.89786986    -1.89786986     4.85670466
PRIMCOORD
24 1
Ti      3.88895298     6.60915403     1.12939199    -0.26167309     0.02863464     0.21800058
Ti      3.74259599     2.71585698     1.23665601     2.22762877     0.31099638     0.23451709
Ti     -0.05546598     6.77527901     1.18170201     0.16240122    -0.03327960    -0.09065765
Ti      0.09454900     2.96898701     1.21278297    -2.19461143    -0.74167586     1.27943977
Ti      5.68256223     2.91506824     3.70219379    -2.17201528     1.48267630    -1.43985070
Ti      5.71485220    -0.74874877     3.68093584    -1.23005555    -2.13422185    -0.59278348
Ti      1.80250821     2.69753025     3.61968479     2.42941417    -0.01879734     1.53392406
Ti      1.96335920    -0.99705376     3.58473882     0.82838635    -0.38221545    -0.40966122
O       4.00859599     4.57385201     0.67102797    -1.43807484     0.80468000     0.62396249
O       4.07416899     0.94828399     0.67426299    -0.84131283    -1.81250962     0.76173433
O      -0.13492702     4.85490001     0.80828697     1.07126698    -1.49205311     1.02812514
O      -0.23200602     1.01385302     0.76145098     1.00685491     0.33609550     0.47209354
O       5.32493323     4.81429920     4.13785780     1.54625996    -0.15951387    -0.65532636
O       5.46567221     1.02444323     4.24701082     1.02449680     0.55912439    -1.50250105
O       2.27129221     4.66349824     4.10696782    -1.74821967     0.17023615    -0.92744996
O       2.00284625     0.78209424     4.09245783    -1.12411552     2.04232570    -1.15386088
O       3.74001022     2.79030221     3.14279184    -0.10617014    -0.07853695     0.86106457
O       3.86051325    -0.81271878     3.20626982    -0.67205319    -0.20928890    -0.73935621
O      -0.08664579     2.92670522     3.19342383     1.70669351     0.16947613     0.95235033
O       0.00904925    -0.90246777     3.18025780    -0.45031372    -0.02244471     0.82816601
O       5.65652300     6.67185100     1.65182800     1.11651867    -0.09603202     0.62246276
O       5.65033702     2.81280500     1.79115402     1.00966822     0.08369252    -0.68879519
O       1.90870302     6.64408502     1.53320202     0.31545391    -0.07114194     0.00373710
O       1.93159602     2.33922798     1.70597802    -2.20642822     1.26377326    -1.21933533
