# total energy = -19075.26886516 eV

CRYSTAL
PRIMVEC
        7.60600008     0.00000000     0.00000000
        0.00000000     7.60600008     0.00000000
       -1.89786986    -1.89786986     4.85670466
PRIMCOORD
22 1
Ti      3.83654898     6.40652100     1.34527001     1.10337622     0.36984818    -2.25703681
Ti      3.74025798     2.75640201     1.22790099     0.58276929    -0.21875674     0.48045503
Ti      0.11103102     6.81505001     0.92282898    -0.26092310    -0.00420093     2.95008203
Ti      0.00881699     3.00229999     1.13772098    -0.65837569    -0.30320157     1.01032359
Ti      5.60443323     2.93981320     3.59256583     0.04589292     0.30161288    -0.51014434
Ti      6.12552825    -0.65313575     3.53878782    -0.49186816    -1.11856116     0.49810797
Ti      1.85240121     2.59826321     3.57246080    -0.12332095     1.47606522     0.99959746
Ti      1.46046825    -1.17925679     3.84356079     0.20715797    -0.24080935     0.29583921
O       4.01282300     4.55429399     0.76638598    -0.43543654     0.90298976     0.07197343
O       3.63722902     0.83923099     0.85176301    -0.20403974    -0.89778276     1.59833150
O      -0.16785502     4.87328701     0.69603298     0.67055578     0.36075907     0.53463488
O       0.35658699     1.18962099     0.74662899    -0.22626642    -1.01322200     0.05144291
O       5.58616222     5.03153122     4.07222881    -0.15140512     0.19787114    -3.43924539
O       5.53130125     1.08907922     3.93466082     0.26580846    -0.52269724     0.36031402
O       1.88929624     4.53195620     4.25573282    -0.81407867     1.03323984     0.15875334
O       1.94395321     0.69916623     4.11347183    -0.42553701     1.01367400    -1.28374946
O       3.72232120     3.03562424     3.22431879    -0.09089933    -0.85214387    -0.05528979
O      -0.03871080     2.91619925     3.18748281     0.19677508    -0.23670407     0.23723012
O       5.82943701     6.88029302     1.63331299     0.14512237    -0.36444218     0.50163861
O       5.62304100     2.84015500     1.70323202     0.94947147    -0.38371415    -1.02340511
O       2.16207801     6.25896003     2.13609297    -0.60852044     0.62883113    -0.94914237
O       1.84948999     3.06224201     1.65380199     0.32374135    -0.12865522    -0.23071160
