# total energy = -19943.32463173 eV

CRYSTAL
PRIMVEC
        6.70777536     0.00000000     0.00000000
        0.00002640     4.75940088     0.00000000
        0.00000000     0.00000000    10.42139148
PRIMCOORD
24 1
Ti      2.43126169     2.82041654     3.86626191     0.41582441     0.18239413     0.24689387
Ti      4.27654018     1.93898434     6.55512969    -0.41582441    -0.18239413    -0.24689387
Ti      5.78503374     1.93898600     1.34439223     0.41584164    -0.18273660    -0.24654266
Ti      0.92276813     2.82041511     9.07699943    -0.41584164     0.18273660     0.24654266
Ti      2.43124849     0.44071621     1.34443400     0.41541972     0.18239310    -0.24674372
Ti      4.27655338     4.31868484     9.07695765    -0.41541972    -0.18239310     0.24674372
Ti      0.92275493     0.44071444     6.55508785    -0.41549994     0.18266821    -0.24645139
Ti      5.78504694     4.31868662     3.86630369     0.41549994    -0.18266821     0.24645139
O       2.12306260     1.67586598     5.31795632     1.04817821     0.54247006    -0.38590036
O       4.58473927     3.08353496     5.10343528    -1.04817821    -0.54247006     0.38590036
O       1.23088302     1.67588516     0.10729407    -1.04855359     0.54204428    -0.38574764
O       5.47691896     3.08351578    10.31409718     1.04855359    -0.54204428     0.38574764
O       4.58472613     0.70383446     0.10726024    -1.04766862    -0.54207565    -0.38575715
O       2.12307575     4.05556642    10.31413102     1.04766862     0.54207565     0.38575715
O       5.47690576     0.70381534     5.31799010     1.04819364    -0.54184554    -0.38588082
O       1.23089605     4.05558566     5.10340144    -1.04819364     0.54184554     0.38588082
O       0.24372518     2.89493741     2.81507785    -1.20496491     0.32831328     0.61619184
O       6.46407669     1.86446353     7.60631375     1.20496491    -0.32831328    -0.61619184
O       3.59762036     1.86441915     2.39565110    -1.20372924    -0.32773478    -0.61620187
O       3.11018151     2.89498179     8.02574033     1.20372924     0.32773478     0.61620187
O       0.24371198     0.51523691     2.39561778    -1.20502970     0.32866244    -0.61650397
O       6.46408989     4.24416397     8.02577359     1.20502970    -0.32866244     0.61650397
O       3.11016837     0.51528129     7.60634695     1.20390330     0.32786797    -0.61624969
O       3.59763351     4.24411965     2.81504459    -1.20390330    -0.32786797     0.61624969
