# total energy = -19885.77308831 eV

CRYSTAL
PRIMVEC
        9.19343019     0.00000000     0.00000000
        0.00002895     3.71139623     0.00000000
        0.00000000     0.00000000    14.22913778
PRIMCOORD
24 1
Ti      3.33219355     2.19936992     5.27890865     0.21500447    -0.15025352     2.42737322
Ti      5.86126585     1.51202618     8.95022926    -0.21500447     0.15025352    -2.42737322
Ti      7.92875174     1.51202745     1.83560345     0.21358856     0.14990385    -2.42703924
Ti      1.26470766     2.19936885    12.39353458    -0.21358856    -0.14990385     2.42703924
Ti      3.33217920     0.34367187     1.83566050     0.21416655    -0.14991260    -2.42601697
Ti      5.86128019     3.36772436    12.39347754    -0.21416655     0.14991260     2.42601697
Ti      1.26469332     0.34367054     8.95017221    -0.21409661    -0.15034069    -2.42822092
Ti      7.92876608     3.36772569     5.27896569     0.21409661     0.15034069     2.42822092
O       2.90978902     1.30684568     7.26102007     1.10426788     0.76868043    -2.30285928
O       6.28367044     2.40455042     6.96811783    -1.10426788    -0.76868043     2.30285928
O       1.68700042     1.30686063     0.14649695    -1.10382590     0.76887197    -2.30324366
O       7.50645911     2.40453547    14.08264056     1.10382590    -0.76887197     2.30324366
O       6.28365610     0.54885231     0.14645080    -1.10337468    -0.76873005    -2.30318890
O       2.90980329     3.16254380    14.08268672     1.10337468     0.76873005     2.30318890
O       7.50644476     0.54883736     7.26106629     1.10339062    -0.76846342    -2.30266053
O       1.68701457     3.16255881     6.96807161    -1.10339062     0.76846342     2.30266053
O       0.33403621     2.25748157     3.84364508    -1.82627711     0.55345844     0.11149413
O       8.85942318     1.45391454    10.38549282     1.82627711    -0.55345844    -0.11149413
O       4.93076342     1.45388004     3.27096905    -1.82735414    -0.55353146    -0.11300260
O       4.26269605     2.25751613    10.95816859     1.82735414     0.55353146     0.11300260
O       0.33402187     0.40178345     3.27092361    -1.82701424     0.55388807    -0.11334404
O       8.85943753     3.30961265    10.95821403     1.82701424    -0.55388807     0.11334404
O       4.26268170     0.40181795    10.38553814     1.82747318     0.55387162    -0.11271566
O       4.93077776     3.30957816     3.84359970    -1.82747318    -0.55387162     0.11271566
