# total energy = -19517.32009076 eV

CRYSTAL
PRIMVEC
        5.93400000     0.00000000     0.00000000
        0.00000000     9.29699974     0.00000000
        0.00000000     0.00000000     4.64899994
PRIMCOORD
23 1
Ti      4.41817002     6.99472998     2.31332301     0.64560296     0.32700793     0.17862103
Ti      4.50915702     2.32914901     2.38281700    -1.03672394     0.10322495    -0.69312545
Ti      1.27058601     7.02492801     2.08215198     0.40153396     0.90934759     1.02990538
Ti      1.52729101     2.24068200     2.30229802     0.70462779     0.58756208    -0.06131800
Ti      2.92589701     4.62712699     0.18534899     0.87383627    -0.00212707     0.93884715
Ti      2.96891901     9.14537797     4.63439598     0.33771324     0.77557793    -0.98219005
Ti      5.91586499     4.62984299     4.59099302    -0.17094217     0.01840268     0.01255496
Ti      0.02316701     0.11162401     4.58642802    -0.92372752    -0.67252267     0.46743496
O       4.51602199     5.61197601     0.98868398    -0.25721583    -0.14684938    -0.10125188
O       4.41842599     0.96152798     0.95005298     0.73079238    -0.25432848    -0.50503992
O       1.37744103     5.56953399     0.94576400     1.05826465     0.40297660    -0.47075271
O       1.49620401     0.87026998     0.87926197     0.15497819     0.22316978     0.55350755
O       4.52051100     8.29680098     3.85093498    -0.43631200    -0.21847494    -0.82638577
O       4.33827500     3.77671300     3.85228798     1.25124427     0.07854312    -1.00599565
O       1.55190098     8.41434998     3.42633199     0.00271329     0.78627243     2.40145624
O       1.70709099     3.71118102     3.94714501    -2.47136919    -0.59740144    -2.23559045
O       3.08832098     1.35654202     3.24619402    -0.44486298     0.52410903    -0.38092296
O       0.18463799     6.09800701     3.27734801    -0.77682543    -0.59042835     0.03985623
O       0.00952800     1.45862602     3.30006998     0.37189016     0.41152578    -0.37093756
O       3.00081702     7.85745098     1.41343302    -0.27685418    -0.84884874     0.24150150
O       2.97974698     3.33596598     1.42298800     0.14647760    -1.48785167     2.09721672
O       5.75227699     7.88052200     1.39989799     0.54838334     0.62374240    -0.46091541
O       0.14630899     3.36474899     1.53580600    -0.43322513    -0.95262930     0.13352386
