# total energy = -19071.69350404 eV

CRYSTAL
PRIMVEC
        5.93400000     0.00000000     0.00000000
        0.00000000     9.29699974     0.00000000
        0.00000000     0.00000000     4.64899994
PRIMCOORD
22 1
Ti      4.28110301     7.20458199     2.32747601     0.96130523    -3.48733995    -0.35644116
Ti      4.47523502     2.44570199     2.16684802     1.18378030    -0.61000371    -1.30560230
Ti      1.38709698     7.15129501     2.52800302    -0.20468971    -2.09772477     0.36331887
Ti      1.74760501     2.41361803     2.26876602    -1.69868992    -0.04377228    -0.88458786
Ti      3.09703499     4.47220098     4.38274801    -1.31316160     1.35786590    -0.01355640
Ti      2.95970598     0.05156102     0.13600601    -0.93916211     1.15876217     0.46521738
Ti      5.85472100     4.70207701     0.05107201    -0.12044980     0.16658029    -1.16100983
Ti      5.85903501     9.03264999     4.61635299     0.18078719     1.33771205     0.59937965
O       4.21333202     5.42580299     0.93645201     1.32481385     0.07196160     0.60395904
O       4.50828198     0.70591801     0.98982800    -0.31602006     0.81282217    -0.74403228
O       1.52106100     0.73492502     1.16077401     0.21792576     0.51457821    -1.58336305
O       4.47520702     7.98665400     3.91704901    -1.28788096     3.24607551     1.65796209
O       4.54481801     3.84444600     3.45271100     0.99774369    -0.83561886    -0.01035409
O       1.46254998     8.15321498     3.97440600     1.01431266     1.83852353     0.99008669
O       1.47894098     3.91422998     3.38987602    -0.37892161    -0.68537768     0.95826207
O       2.91575897     6.06600401     3.40653002    -0.67256973     0.71620239    -1.81274924
O       3.15600100     1.54777699     3.24425999    -0.19807400    -1.10119772     1.06571006
O       5.82511998     6.17637498     3.49157902     1.36844831    -1.24693999    -0.95526777
O       2.84216799     8.14418700     1.76679398    -0.00734616    -0.69331905    -1.20970809
O       3.05127402     2.95142198     1.04706699     0.17239793     0.71486722     0.14933718
O       5.88301198     8.06925402     1.46798399     0.35931000    -2.76197003     2.37366800
O       0.12405000     2.83033601     1.14032199    -0.64385949     1.62731324     0.80977104
