# total energy = -4989.33040837 eV

CRYSTAL
PRIMVEC
        3.78800905     0.00000000     0.00000000
        1.11138836     3.62130204     0.00000000
       -2.44973289    -1.81067629     4.89090367
PRIMCOORD
6 1
Ti      0.83342535     2.71611536     1.22272563     0.00066437    -0.00066437     0.00000000
Ti      1.61623893    -0.90548978     3.66817731    -0.00066437     0.00066437     0.00000000
O       0.27788671     0.90532049     0.79668811    -0.00023911    -0.00012187    -0.84128069
O       2.17177740     0.90530501     4.09421484     0.00023911     0.00012187     0.84128069
O      -0.27785754    -0.90529893     3.24213979    -0.00012187    -0.00023911    -0.84128069
O       2.72752163     2.71592432     1.64876321     0.00012187     0.00023911     0.84128069
