# total energy = -19956.71726019 eV

CRYSTAL
PRIMVEC
        5.52252772     0.00000000     0.00000000
        0.00002568     4.80897797     0.00000000
        0.00000000     0.00000000     9.07631821
PRIMCOORD
24 1
Ti      2.00166589     2.84979580     3.36724944    -0.27766947     1.07689950    -1.84011582
Ti      3.52088756     1.95918197     5.70906913     0.27766947    -1.07689950     1.84011582
Ti      4.76283406     1.95918353     1.17087358    -0.27563239    -1.07708719     1.84118977
Ti      0.75971939     2.84979440     7.90544509     0.27563239     1.07708719    -1.84118977
Ti      2.00165325     0.44530691     1.17090998    -0.27805925     1.07687765     1.84003689
Ti      3.52090020     4.36367101     7.90540869     0.27805925    -1.07687765    -1.84003689
Ti      0.75970675     0.44530515     5.70903274     0.27572572     1.07666296     1.84135663
Ti      4.76284670     4.36367272     3.36728583    -0.27572572    -1.07666296    -1.84135663
O       1.74792395     1.69332282     4.63157585     0.40586910    -0.99565750     1.07024471
O       3.77462950     3.11565495     4.44474272    -0.40586910     0.99565750    -1.07024471
O       1.01339027     1.69334226     0.09344580    -0.40528803    -0.99636404     1.07074942
O       4.50916323     3.11563556     8.98287252     0.40528803     0.99636404    -1.07074942
O       3.77461687     0.71116591     0.09341633    -0.40571637     0.99563667     1.07024034
O       1.74793658     4.09781186     8.98290198     0.40571637    -0.99563667    -1.07024034
O       4.50915055     0.71114652     4.63160531     0.40485582     0.99627328     1.07061470
O       1.01340280     4.09783130     4.44471326    -0.40485582    -0.99627328    -1.07061470
O       0.20066173     2.92509303     2.45174007     0.74333474    -0.33365861     0.44810925
O       5.32189172     1.88388474     6.62457850    -0.74333474     0.33365861    -0.44810925
O       2.96193111     1.88384004     2.08644809     0.74215974     0.33345935    -0.44863427
O       2.56062234     2.92513773     6.98987033    -0.74215974    -0.33345935     0.44863427
O       0.20064904     0.52060399     2.08641908     0.74328152    -0.33388512    -0.44863530
O       5.32190441     4.28837378     6.98989933    -0.74328152     0.33388512     0.44863530
O       2.56060965     0.52064869     6.62460745    -0.74221297    -0.33384630    -0.44800204
O       2.96194380     4.28832908     2.45171107     0.74221297     0.33384630     0.44800204
