# total energy = -19077.18837092 eV

CRYSTAL
PRIMVEC
        5.17575250     0.00001323     0.00000000
        0.00001429     5.50856584     0.00000000
        0.00000000     0.00000000     9.26345890
PRIMCOORD
22 1
Ti      1.93108873     3.42894391     3.29928111    -0.04459966    -0.00140099    -0.02057423
Ti      3.39662741     2.24623838     5.92878468    -0.00310204     0.11928740    -0.06330007
Ti      4.48060857     2.25655384     1.14367034     0.03649657    -0.06223409    -0.07588357
Ti      0.75815688     3.27413363     8.10371532    -0.02167569     0.03603377    -0.04092838
Ti      1.82927184     0.62560509     1.23461965    -0.06738298    -0.08758980    -0.04238414
Ti      3.20207656     4.98752037     8.13315121     0.03711980    -0.03917771     0.07139262
Ti      0.75684728     0.55740766     5.79489450     0.08210075     0.08282195     0.06190730
Ti      4.48891359     4.95654578     3.49628880    -0.17563752    -0.07730307    -0.10556928
O       3.44183049     3.48776933     4.53674157     0.03515548    -0.00495529    -0.03795104
O       0.94468684     1.91937826     0.12168875    -0.02473994     0.08964617     0.03816701
O       4.17339145     3.61050990     9.12074660    -0.10992473     0.06450026     0.05230449
O       3.55707223     0.83436704     0.07044124    -0.00451589    -0.01568785     0.00196792
O       1.58755184     4.70179162     9.13787053    -0.02380123     0.10935266    -0.00932257
O       4.24413281     0.82002618     4.72655067     0.13116976    -0.03313588     0.04518613
O       0.93213726     4.61804519     4.57339407     0.02679296    -0.03568153     0.11711765
O       0.16624235     3.31240383     2.51254139     0.04935157    -0.09960586    -0.06189213
O       5.09788099     2.07281490     6.77282076    -0.02802761    -0.10159872     0.01043046
O       2.73960818     2.08992384     2.16462987     0.01991886     0.10910352     0.03746921
O       2.36667680     3.38355466     7.07121909    -0.03428824     0.03075426    -0.00439119
O       0.19299819     0.53056026     2.18733416     0.03867609     0.04619760    -0.02913061
O       2.41793872     0.65350653     6.69484820     0.05746855    -0.04489405     0.03764842
O       2.77758102     4.88344636     2.47518360     0.02344538    -0.08443249     0.01773625
