# total energy = -19518.29546013 eV

CRYSTAL
PRIMVEC
        5.93400000     0.00000000     0.00000000
        0.00000000     9.29699974     0.00000000
        0.00000000     0.00000000     4.64899994
PRIMCOORD
23 1
Ti      4.50010000     7.01655500     2.34391702     0.52953535     0.59324062    -0.28935848
Ti      4.43884000     2.37696202     2.28832198     0.30534073    -0.74489668     0.10877107
Ti      1.44376599     6.98652101     2.23316800    -0.25216309     0.67385322     0.05193502
Ti      1.47795200     2.28438500     2.34152302    -0.11119228     0.10590943     0.33807242
Ti      3.00212202     4.56814399     0.07447402    -1.05227012    -0.28995447     0.60762415
Ti      2.99311802     0.06210398     0.03822300    -0.16906244    -0.43352929    -0.08273736
Ti      5.91174201     4.63682897     4.63580697     0.86986700     0.05858698    -0.34570115
Ti      0.02388299     0.08841398     4.53256798     0.20628894    -0.57000273     0.41471832
O       4.47654801     5.50740900     0.92933098    -0.68956884     0.50639670     0.04878542
O       4.53751399     0.93625098     0.91685298    -0.67628960    -0.30922772    -0.17297951
O       1.47579100     5.52331898     0.91123698     0.25794371     0.26683690     0.03425893
O       1.42363402     1.00137201     0.94394802     0.44413690    -1.07510230    -0.69858082
O       4.45924900     8.40401901     3.78363501    -0.24312875    -0.72066069    -0.44673577
O       4.36783601     3.73852302     3.68089599     0.34295778     0.41162554     0.58284256
O       1.57993901     8.27395502     3.79136799    -0.48213550     0.45852299    -0.02547733
O       1.46342000     3.68967901     3.80112501     0.14633645     0.31746297    -0.26883156
O       2.86107999     1.39303397     3.36338599     0.55133780     0.29964907    -0.84406828
O       5.92283600     6.02965398     3.20862101    -0.16509702    -0.33058151     0.39248084
O       5.89725700     1.31667798     3.14004303     0.13786389     0.25487612     0.70858832
O       2.95106901     7.82422299     1.39041402     0.34181904    -0.53077102     1.12300300
O       2.96435200     3.23211500     1.47370001    -0.25418964     0.02430490    -0.43638862
O       5.92175997     7.85794698     1.46904801    -0.10608993     0.31315714    -0.39607062
O       5.89169599     3.19740801     1.45533798     0.06775913     0.72030382    -0.40415057
