# total energy = -19072.12810283 eV

CRYSTAL
PRIMVEC
        5.17600016     0.00000000     0.00000000
        0.00000000     5.50899976     0.00000000
        0.00000000     0.00000000     9.26300011
PRIMCOORD
22 1
Ti      1.63825402     3.28380202     3.33728998     0.40638563    -0.02747765     0.30538238
Ti      3.90869298     2.30875700     5.65128901    -0.91954433    -0.99543407    -0.73837636
Ti      4.22768003     2.05856703     1.49808698     0.32899565    -0.09851417    -0.51988754
Ti      1.07542100     3.31192302     8.18725600     0.16233437    -1.48093514     0.91555192
Ti      1.61445502     0.42331402     1.35763800     0.05646068     1.15684773     0.54258576
Ti      3.27189701     5.06683798     8.16087497    -0.10153419     1.83561433    -0.70790827
Ti      1.45546901     0.25930098     5.95434697     1.42356404    -0.80196671    -1.30624585
Ti      4.25016201     5.05769502     3.64098899    -0.39429630    -1.51918032     0.77496498
O       3.13047201     3.76760697     4.59925998     1.13278425    -1.80821947     1.17922739
O       0.65954800     2.01036702     0.50226203     0.23408026     0.60580252    -2.47469568
O       4.55710699     3.70313599     7.81413597    -1.41093838     0.07331838    -0.38602249
O       3.20306798     0.95760698     0.28634501     1.03715769    -0.35179261    -1.80282170
O       1.65416998     4.77668301     9.19358798    -0.91459496    -1.23503578    -0.41968030
O       3.26285797     0.93220499     4.38321099     0.69430404     0.46724212     1.47324883
O       0.89104897     4.70816900     4.47134498    -2.00661024     0.57909441     0.05818537
O       4.94021502     3.28714901     2.75775400     0.83151718     0.11882795    -0.09098623
O       0.53639502     1.74962398     5.56698002    -1.69594013     2.10256178    -0.25633394
O       2.49193700     1.77460803     2.24017701    -0.97861391     1.82994299     2.47644609
O       2.05894697     4.20739100     6.86311899    -0.08536708    -1.36581267     0.07111905
O       4.95563599     0.55436498     2.22273702     1.14873127    -0.92362493     0.19403069
O       2.84915202     1.14130600     6.82634398     1.03601432     0.56740823     1.33060372
O       2.55481601     4.43672001     2.32347702     0.01510986     1.27133334    -0.61838808
