# total energy = -4988.07669513 eV

CRYSTAL
PRIMVEC
        3.54134603     0.00000000     0.00000000
        0.35324326     3.52368428     0.00000000
       -1.94732605    -1.76187056     4.52521974
PRIMCOORD
6 1
Ti      0.26479675     2.64289725     1.13130471     0.00226951    -0.00235462    -0.00040443
Ti      1.68246618    -0.88108381     3.39391448    -0.00226951     0.00235462     0.00040443
O       0.08834815     0.88091550     0.73712124     0.00039929     0.00173935     1.36372365
O       1.85891467     0.88089785     3.78809806    -0.00039929    -0.00173935    -1.36372365
O      -0.08832855    -0.88089776     2.99973101     0.00176969     0.00038361     1.36360281
O       2.03559132     2.64271107     1.52548828    -0.00176969    -0.00038361    -1.36360281
