# total energy = -39028.09459611 eV

CRYSTAL
PRIMVEC
        5.93200024     0.00000000     0.00000000
        0.00000000     9.29399984     0.00000000
        0.00000000     0.00000000     9.29399984
PRIMCOORD
46 1
Ti      4.33305599     7.43219499     6.90848203     1.81946857    -3.26291778     0.12443398
Ti      4.45062298     6.55035502     2.41921201     1.49931957     2.48968676    -0.17552748
Ti      4.36934501     1.89742800     7.09534499    -0.59859315     1.70777466    -0.55490058
Ti      4.08230397     2.74439302     2.20880399     0.73416335    -0.78966166    -0.84964218
Ti      1.54734000     6.79240901     7.16845099    -1.72050805    -0.44648894     0.60003399
Ti      1.49487498     7.08714301     2.05594299     0.68246848     0.26691763    -1.55719255
Ti      1.36220199     2.58842898     6.82724099     0.05775291    -0.55919278     0.19581735
Ti      1.24994201     1.96073702     3.01036899     0.06179366    -0.29458271    -1.20011530
Ti      3.03770099     4.62433901     4.89407399     0.90973325     1.95344520    -0.00729011
Ti      3.06812101     4.65806798     8.89769799    -0.06379861     0.03522824    -0.47734785
Ti      3.06827902     9.06688098     4.51809800     1.77891634     0.61306486    -0.58570574
Ti      2.96517101     0.16372601     0.10896802    -0.74748939     0.50187824     2.38134532
Ti      0.08310798     4.65362898     4.53390500    -0.41520889     1.15182019     2.17886958
Ti      0.02574299     4.78250798     0.19648600     1.23321466     1.00304042    -2.92038938
Ti      0.17146502     9.03978399     4.77045798    -2.28603012    -0.28178427    -0.49158457
Ti      0.02109999     0.00591398     9.13166202     2.11665041     1.55368428     2.66252641
O       4.58057002     5.81291901     5.64514199    -0.88052474    -1.59366906    -2.21689081
O       4.31659397     5.63968903     0.77619798     1.15426300    -2.17851451     0.07537449
O       4.42404998     0.75226197     5.49312301    -0.03217865     0.43085431     0.89266344
O       4.49795000     1.37298303     0.69874300    -1.98838342    -1.63649234    -0.19275619
O       1.26268100     5.86486998     5.47796500     1.86750528    -1.86891758    -0.12034541
O       1.80175498     5.89637201     0.35631399    -1.97015841    -0.41606584     3.01329751
O       1.35243999     0.95136200     5.36333399     1.77710526     1.25498600    -0.42130652
O       1.20179000     0.76092900     1.11980902     1.13019309    -0.30787943    -0.22981248
O       4.37706401     8.68290902     8.42283200     0.11660394    -1.19148821    -1.98581463
O       4.59684498     8.06794801     3.92737501    -1.49673304     0.73133051    -0.64320180
O       4.53963102     3.72350100     8.25211498     0.31236138    -0.40351731     1.31940347
O       4.39176000     4.04501698     3.69193902    -0.87450244    -0.24899806    -0.80712820
O       1.75297097     8.23228797     8.42269098    -2.03652246     1.41060413     0.32190506
O       1.47054400     8.48493698     3.51985402     0.48649764     0.27318933     0.20085208
O       1.46299100     3.85800802     8.31697401    -0.07584243    -1.02376944    -0.26473811
O       1.60929999     3.68106199     3.83422298     0.18448366    -0.03199096     0.33945182
O       3.24755401     6.03190801     7.57449599    -1.14096345    -0.26089842     0.77231314
O       2.86785198     6.09456302     3.02333103    -1.77224535    -0.59846896     1.31212570
O       2.61141300     1.52925600     8.01078200     2.09074550    -0.02542976    -1.61088080
O       3.18395902     1.62115800     3.23602001    -0.90413339    -1.99798161     0.54170310
O       0.07979199     5.90748801     7.95026402    -0.78318068     1.18164680     0.09259523
O       0.23061799     5.78400699     3.03475803    -0.33363007     0.80557757    -1.64913858
O       0.14072199     1.49087102     7.86317202    -0.59181315    -0.62724476    -0.76031071
O       2.88719600     7.95955399     6.10590699    -1.88614012     1.28426573    -1.54995001
O       3.21901601     7.98183198     1.32532702    -1.71509022     0.06193456     1.28951979
O       3.28562397     3.18795198     5.94790800    -1.94656493    -0.51156719     1.42719058
O       5.92271800     7.99697799     6.22126398     2.03550919    -0.27376757     1.33302055
O       5.71119500     7.73105901     1.53504499     1.80178400     0.42154100    -1.20697526
O       5.82762299     3.10137700     5.76522299     0.95891976    -0.09097775     1.26335469
O       5.86688001     2.74004800     1.98686398     1.45078149     1.78979648     0.14114770
