# total energy = -19073.88218126 eV

CRYSTAL
PRIMVEC
        7.60600008     0.00000000     0.00000000
        0.00000000     7.60600008     0.00000000
       -1.89786986    -1.89786986     4.85670466
PRIMCOORD
22 1
Ti      3.85055302     6.61374199     1.24947099    -0.26538577     0.12465870    -0.97935541
Ti      3.80676000     2.76070602     1.26088497     0.81923682    -0.29218284     2.36192397
Ti      0.29677599     6.82299000     1.05058999    -0.91170529    -0.47068715     1.18576494
Ti      0.09583998     2.89738298     0.93678598    -0.50924342    -0.04457600     1.43077007
Ti      5.79286224     2.92445325     3.46748383    -0.68647606    -0.18519843     0.15765728
Ti      5.93499020    -0.95692778     3.52015581    -0.21828854     0.60975457     0.99376954
Ti      1.81051122     2.74042620     3.81904681     1.02500691     0.15462826    -1.37783927
Ti      1.03621923    -0.99060478     4.09931380     3.07790859    -0.17700406    -2.12982192
O       3.77189701     4.57656801     0.91617198    -0.02790754     3.85002504    -0.14564791
O       4.09235702     0.87211898     0.72264398    -1.03568856    -1.05536419     1.92991574
O       0.28427100     4.85819001     0.55307997    -0.04649970    -0.87408670     0.65949746
O      -0.24270900     1.04159498     0.77051197     1.30506160    -0.52175904    -0.58015936
O       5.68686825     4.83427220     4.08151883     0.13746717     0.31286738    -2.78066633
O       5.73161923     0.99037623     3.88113682     0.39256080    -0.52005080    -0.37801478
O       1.75112621     4.73879323     4.19624780    -0.79863533    -0.22958957     0.21182504
O       1.85609122     0.92148921     4.28711780    -1.30824874    -0.99402099    -3.54644115
O       3.82054624     2.87529724     3.27649879    -0.09286931    -0.08031795     0.05120354
O       0.08960024     2.86286120     3.04378579    -0.64452926     0.31041583     0.50833017
O       5.86308501     6.67849900     1.68895402    -0.79359571    -0.70440154     0.00784032
O       5.71051501     2.80610001     1.32901099     1.17258520     1.11135230     2.09780576
O       1.92150202     6.71302099     2.02354602     0.20016508     0.12093651     0.54907960
O       1.94437200     2.65484702     1.53882400    -0.79091893    -0.44539905    -0.22743704
