# total energy = -19071.24550283 eV

CRYSTAL
PRIMVEC
        5.17600016     0.00000000     0.00000000
        0.00000000     5.50899976     0.00000000
        0.00000000     0.00000000     9.26300011
PRIMCOORD
22 1
Ti      1.77305399     3.46266102     3.52216202     2.13908252     1.35531408    -1.28355508
Ti      3.74790697     2.24804301     6.00557101     0.15629228     0.56644612    -0.15188438
Ti      4.30822699     2.16738698     1.52969500    -2.33029527     3.86976032    -3.61753809
Ti      1.16815502     2.76062400     7.66503801    -2.69156369    -0.97116696     1.43988618
Ti      1.80363398     0.58576699     1.11448301     0.35813681    -0.05733485    -0.23616311
Ti      3.07787999     5.37635302     7.89327999     1.30691099    -0.62763325     0.19553915
Ti      0.67761099     5.31887198     6.34979801    -1.06502666     1.17653493    -0.38385556
Ti      4.41026703     5.12960200     3.48651098    -1.19923906    -1.25537372     1.80242677
O       3.57149600     3.28003898     4.42413703    -0.06919227     0.61647646     0.13434636
O       0.86780201     1.96612198     0.11301601    -0.46986825    -0.46791729     1.33831034
O       4.44076901     3.92925898     7.56971202     1.21459138     0.52383598    -1.51879568
O       3.39194198     1.07740499     0.10838698    -0.39981029     0.03309268     0.80611519
O       1.95244402     4.45690601     9.21514100    -0.11176410     1.03773413    -1.83122031
O       4.58272198     0.85138100     4.97800299    -1.19242538     0.17916508     0.75264342
O       1.07804100     4.90364099     4.52000098    -0.74471079    -0.55989083    -1.17763613
O       0.10887499     3.92899498     2.47030497     0.96370279    -2.34815391    -1.58603931
O       4.82205800     1.29139501     7.38939799     0.64556233    -0.40195922    -1.26888050
O       2.31465098     2.12328699     2.19583799     1.38874898    -0.50774524     0.89649567
O       1.96109199     3.89570602     6.32272901     0.83045172    -0.62559437     2.57779207
O       5.05979299     1.07280300     2.46799501     2.43316875    -2.55541369     1.50192101
O       2.23035098     1.20834402     6.48939698    -0.76713853    -0.24185579     1.05968416
O       2.78535801     4.70945601     2.44857902    -0.39561399     1.26167961     0.55040731
