# total energy = -19960.44742476 eV

CRYSTAL
PRIMVEC
        7.60600008     0.00000000     0.00000000
        0.00000000     7.60600008     0.00000000
       -1.89786986    -1.89786986     4.85670466
PRIMCOORD
24 1
Ti      3.70746101     6.62847101     1.28460201    -1.05233954     0.99671962     0.76384109
Ti      3.76157499     2.99569802     1.23975001     0.24384583    -0.65866982     0.49013549
Ti     -0.03055401     6.62373101     1.19353902     1.57373580    -1.24258479    -0.94893077
Ti      0.09242398     2.72070498     1.14383499    -1.19451286     1.61960019    -0.25831626
Ti      5.76952023     2.85518522     3.58957979    -0.00591714    -0.77794386    -0.26921286
Ti      5.80731523    -1.02479477     3.56721083    -1.68621698     0.59214379     0.33514136
Ti      1.86354023     2.94872222     3.72661182    -0.02683744    -0.15231478    -2.08087555
Ti      1.79742123    -0.95783178     3.78920582     1.85511795    -0.11000315    -1.14812140
O       3.61773699     4.84349698     0.76242699     0.60334403    -1.07699078     0.88029283
O       3.69628002     1.01446099     0.80026999     0.19757290     0.11670216     0.85472114
O       0.19977399     4.62717001     0.61841701    -0.94343709     0.84075850     0.92362107
O       0.20650999     0.86564000     0.74990301    -0.73058669    -0.33807088    -0.19287009
O       5.95884524     4.66416823     4.08910782    -0.72255559     1.61658171    -0.02291497
O       5.74392123     0.88339220     3.82811183    -0.43344419    -0.93693836     0.63250241
O       1.63418825     4.78765121     4.12718180     0.38745691     0.76805308     0.00380112
O       1.91753520     1.11781122     4.12911579     0.15887906    -1.68471391    -0.37483536
O       3.78361623     3.08849725     3.16670181     0.08974927    -0.26997159     0.31299336
O       3.70486523    -1.22576380     3.20375782     0.66248663     0.84889116     0.95568943
O       0.03840721     2.89975523     3.07444981     0.05817586    -0.61407377     1.23372837
O       0.01886723    -0.88238375     3.19434180    -0.63920528     0.05449404    -0.31839962
O       5.61114600     6.52967599     1.60933502     1.80171741     0.09799738    -0.06495766
O       5.83132099     2.97794598     1.64781901    -1.96622385    -0.35735159    -1.29199576
O       1.87300298     6.44474903     1.68505801    -1.17279757     0.99981960    -0.00753411
O       1.80975302     2.94611898     1.66100399     2.94199231    -0.33213369    -0.40750278
