# total energy = -19071.31923006 eV

CRYSTAL
PRIMVEC
        7.60600008     0.00000000     0.00000000
        0.00000000     7.60600008     0.00000000
       -1.89786986    -1.89786986     4.85670466
PRIMCOORD
22 1
Ti      4.36021400     6.55640400     1.28367801    -1.36228872     0.26905550    -1.82730709
Ti      3.40772601     2.57934401     1.23974000     0.60334378     1.00541689     0.64390166
Ti      0.13910302     6.87906099     1.01484301    -1.39490137    -0.74296707    -2.47556291
Ti      7.16094101     2.95885702     1.00518499    -0.04935440    -1.85657654     0.28710748
Ti      5.55724221     2.85167423     3.62439679     0.48830075     1.23560553    -2.69917441
Ti     -0.96952876    -0.56527979     3.87308481    -3.09281379    -0.90150598     0.33280809
Ti      1.69872925     2.68465721     3.90879681     1.05735731     1.40993488    -0.33380362
Ti      1.94421124    -0.87064676     3.84588779     0.00713070    -4.36216841    -2.58085683
O       3.79123902     4.57005501     0.82845403    -0.37442886     1.20022585     2.22261435
O       3.78149798     0.80248899     0.86961603    -0.09033343    -0.77011485     2.39396198
O       7.09939500     4.79765298     0.51807601     0.27848220     1.43972986     3.61620472
O       7.08018999     0.90519499     0.12704101     0.53883375     0.55790285     2.65806888
O       5.99241524     4.83347023     3.97122083     1.38233047    -1.33483498    -0.47816186
O       5.17131123     1.06947823     4.02117781     0.93198745    -0.57476904    -1.96815783
O       2.15582922     4.73774821     4.26089579    -0.19576464    -0.72858637     0.15548829
O       2.14753622     0.80696223     4.21038879     0.22731851     2.46470926    -0.64518670
O       3.41744324     2.92129724     3.10347481     0.09313156    -0.44395435    -0.92837042
O      -0.00544978     2.68435722     3.19574084    -0.41732491     0.07928694    -0.75642140
O       6.06452199    -0.73728901     1.98414999     0.04143206     0.07433525     0.31414290
O       5.51472800     2.52612899     1.64065702    -0.12742983     1.03821030     0.34308993
O       1.66603398     6.79647600     1.96565599     0.64185840    -0.15980389    -0.08583297
O       1.59954503     2.32042801     0.44004200     0.81313327     1.10086836     1.81144801
