# total energy = -19958.95974808 eV

CRYSTAL
PRIMVEC
        5.93400000     0.00000000     0.00000000
        0.00000000     9.29699974     0.00000000
        0.00000000     0.00000000     4.64899994
PRIMCOORD
24 1
Ti      4.49898899     6.95496802     2.39455002     1.02155880    -0.33050309    -0.82589366
Ti      4.46109402     2.54291402     2.38859800    -0.99161084    -1.88078374     0.69063559
Ti      1.56013598     6.82016298     2.12976603    -1.76820821     0.70888143     0.93245899
Ti      1.48084099     2.52528601     2.41246098     0.75724158    -2.82008881    -0.97913918
Ti      2.97407600     4.66603300     0.00106301     0.03911601     1.04037414     0.53315829
Ti      2.99872899     9.04711098     4.63224201    -2.34501665     1.72627401     0.22508628
Ti      5.86554600     4.59995601     4.61018802     1.16581085     1.51246742     0.91100158
Ti      5.91903699     0.06181002     0.01504700     2.05369872     0.61064108     1.16393600
O       4.50025801     5.63878202     0.72439899    -1.09460901     0.37559049     1.01186111
O       4.36008499     0.60722200     0.86591898     1.26411856     2.37345306     1.50121344
O       1.50018300     5.58688402     0.72366000    -0.15260249     0.25999853     0.61942166
O       1.43364600     0.89338000     1.03488898    -0.76780419    -0.01626018    -1.01396427
O       4.37890999     8.30128401     3.75976298     1.21617030    -0.99628459    -1.63544976
O       4.45301402     3.73859102     3.95538700    -1.08897495    -1.96380341    -2.31180775
O       1.47679601     8.27158102     3.90495001    -0.85943140     0.08599829    -1.50503796
O       1.49055399     3.80035199     3.70614499     0.20810491     0.07131549     0.78751633
O       2.93666200     5.90169500     2.98570599     0.67318833    -0.36827364     1.33043814
O       3.08738402     1.58438500     3.19001599    -0.77437439    -0.49979127     0.11948898
O       5.79121602     5.91703199     3.23308599     0.64040727     0.94839932    -1.50842539
O       5.87815302     1.66456498     3.31522901     0.47658552    -1.30732468     0.19784415
O       2.88062499     7.81302200     1.43840801     1.00399147     0.30055693    -0.01585986
O       2.99497099     3.47294499     1.55412902    -0.20080143    -0.09317424    -0.97839022
O       0.02180798     7.74349801     1.35793201    -0.75205952     0.30279842     0.89130487
O       0.01002600     3.35242398     1.45209100     0.27550101    -0.04046121    -0.14139710
