# total energy = -19960.84870170 eV

CRYSTAL
PRIMVEC
        5.93400000     0.00000000     0.00000000
        0.00000000     9.29699974     0.00000000
        0.00000000     0.00000000     4.64899994
PRIMCOORD
24 1
Ti      4.40816799     6.95602199     2.29986402     1.47601148     0.50699911     0.39294981
Ti      4.49932798     2.45873901     2.32792899    -1.20330938    -1.15895398    -0.15961363
Ti      1.50116600     6.96943700     2.25843399    -1.44600747     0.69048518     0.60749045
Ti      1.49081302     2.24252401     2.40937201     1.21221054    -0.14225173     0.39603411
Ti      2.95018201     4.65683097     0.03001599    -0.30207028    -1.22887078    -0.22065421
Ti      2.94896998     9.22987800     0.06902202     0.38770090     1.52994682    -1.18454392
Ti      5.93081197     4.69454099     0.00390099     0.17894396    -0.69353657    -0.53619965
Ti      5.89789498     0.02451498     4.61962600    -0.41966204    -0.02365287     0.27748693
O       4.41400900     5.58575401     0.77832099     0.30547237     0.08968474     0.34305137
O       4.45183400     0.91090598     0.90717099     0.27716528    -0.50972499    -0.18894144
O       1.54869400     5.61708702     0.87852901    -0.36449515    -0.68758317    -1.08808149
O       1.51009502     0.83360398     0.96591999    -0.66565397     0.38388024     0.16153579
O       4.39384300     8.40444002     3.68585898     0.45291336    -0.59083021    -0.23132429
O       4.50505199     3.66350701     3.76046800     0.07058606     1.71446699     1.17739239
O       1.42654402     8.38669898     3.70850602     0.42887251     0.01779615    -0.24491541
O       1.50216302     3.65444702     3.83998498    -0.16803220     0.64877596     0.04207509
O       2.86961800     5.98964299     3.05031901     0.97701931    -0.16469439     0.91513360
O       3.08919301     1.47544000     3.24843303    -1.58698419    -0.37036112    -0.04417414
O       0.05728598     6.01775802     3.12786401    -0.66441753    -0.24339871     0.66636874
O       5.91993997     1.49007799     3.34530501     0.82604330    -0.52424144    -0.59705923
O       3.01416001     7.93918601     1.37758200    -0.26359037    -1.14385620     0.76346828
O       3.02777299     3.28600302     1.49168902    -0.83027405     0.49138582    -0.73624800
O       5.84202101     7.70309601     1.27904401     0.26006332     0.94089555     0.30564489
O       0.01433800     3.28737502     1.50764202     1.06149447     0.46763987    -0.81687629
