# total energy = -19955.71930904 eV

CRYSTAL
PRIMVEC
        5.97799392     0.00000000     0.00000000
        0.00002780     5.20559471     0.00000000
        0.00000000     0.00000000     9.82488054
PRIMCOORD
24 1
Ti      2.16675173     3.08483050     3.64496073     0.10662754     0.04417003    -0.25461027
Ti      3.81127004     2.12076399     6.17992020    -0.10662754    -0.04417003     0.25461027
Ti      5.15564512     2.12076567     1.26744048     0.10819900    -0.04412837     0.25522888
Ti      0.82237666     3.08482899     8.55744056    -0.10819900     0.04412837    -0.25522888
Ti      2.16673806     0.48203325     1.26747987     0.10641003     0.03559334     0.25402611
Ti      3.81128372     4.72356140     8.55740116    -0.10641003    -0.03559334    -0.25402611
Ti      0.82236298     0.48203135     6.17988080    -0.10830725     0.03582576     0.25451334
Ti      5.15565879     4.72356325     3.64500012     0.10830725    -0.03582576    -0.25451334
O       1.89208262     1.83297831     5.01356148     0.78859877     0.39780200     0.02291111
O       4.08593915     3.37261618     4.81131944    -0.78859877    -0.39780200    -0.02291111
O       1.09696885     1.83299935     0.10115267    -0.78824216     0.39786114     0.02245859
O       4.88105298     3.37259520     9.72372798     0.78824216    -0.39786114    -0.02245859
O       4.08592547     0.76981876     0.10112077    -0.78846533    -0.39839978     0.02242903
O       1.89209630     4.43577573     9.72375988     0.78846533     0.39839978    -0.02242903
O       4.88103925     0.76979778     5.01359338     0.78771842    -0.39797349     0.02204953
O       1.09698241     4.43579676     4.81128755    -0.78771842     0.39797349    -0.02204953
O       0.21721115     3.16633782     2.65394544    -0.19298605    -0.09800483     0.23191333
O       5.76081063     2.03925667     7.17093549     0.19298605     0.09800483    -0.23191333
O       3.20621409     2.03920829     2.25852628    -0.19323519     0.09836170    -0.23253863
O       2.77180768     3.16638620     7.56635448     0.19323519    -0.09836170     0.23253863
O       0.21719742     0.56354041     2.25849488    -0.19372447    -0.09832673    -0.23260059
O       5.76082436     4.64205409     7.56638587     0.19372447     0.09832673     0.23260059
O       2.77179395     0.56358879     7.17096682     0.19333315    -0.09809045    -0.23232060
O       3.20622782     4.64200571     2.65391405    -0.19333315     0.09809045     0.23232060
