# total energy = -19959.98809558 eV

CRYSTAL
PRIMVEC
        7.60600008     0.00000000     0.00000000
        0.00000000     7.60600008     0.00000000
       -1.89786986    -1.89786986     4.85670466
PRIMCOORD
24 1
Ti      3.78524202     6.53808700     1.27946698     0.14556126     0.15038337    -0.04862035
Ti      3.60083502     2.88926900     1.12170601     2.65461923     0.39394946     1.60741110
Ti      0.01857301     6.53975301     1.18174202    -0.01911127    -1.22088853     0.26296816
Ti      0.03043298     2.79674601     1.13208598    -1.91764772     1.58975841     0.84911073
Ti      5.64896222     2.84641421     3.52685979     0.57031589    -0.54738987     0.84798665
Ti      5.84328722    -1.04752679     3.73956381    -1.10247916     1.14874515    -1.18991316
Ti      1.85126824     2.99350421     3.61230583    -0.44524427     1.30296255     0.13867764
Ti      1.86497520    -0.77787077     3.77761081     1.20063903    -2.21428886    -1.10948182
O       3.95842998     4.73127399     0.65984799    -0.35982345     0.34039593     1.30296332
O       3.76444001     0.92355998     0.86484401    -0.05996843     1.33122181    -0.59158535
O       0.08795101     4.61043700     0.68335997    -0.53913894     2.75204120     0.74891738
O       0.11214298     0.91883099     0.93732097    -0.01062046    -0.75188829    -1.27214452
O       5.89258723     4.77546622     4.01149879    -0.76155898    -0.25491700     1.34655253
O       5.89056222     1.01814020     3.97054984    -0.40037053    -2.58640938     0.11240790
O       1.79006625     4.78695323     4.11225281     0.31109229     0.27052798     0.49489743
O       1.62903020     1.11026621     4.05567779     0.25900043    -2.63993643    -0.53083324
O       3.76614121     2.95470324     3.29792084    -0.96220846    -0.19478556    -1.14521271
O       3.85386223    -0.98986579     3.36993181    -0.54577830     0.55756835    -0.58102042
O      -0.08516579     3.05037421     3.14192584     2.73293686    -0.61578766    -0.10318329
O       0.09225221    -1.08363880     3.19632383    -0.68575743     0.83031596     0.05571377
O       5.72006502     6.43030698     1.59865701     0.78527485     0.73869621     0.64788687
O       5.72865102     2.96770502     1.72157700    -1.02951045    -0.70902233    -2.85715565
O       1.92313199     6.37383202     1.65503699     0.46986902     0.84081249     0.39074278
O       1.89598901     3.03848301     1.55792899    -0.29009099    -0.51206470     0.62291451
