# total energy = -19887.21154529 eV

CRYSTAL
PRIMVEC
        8.96699121     0.00000000     0.00000000
        0.00002788     3.18119677     0.00000000
        0.00000000     0.00000000    14.26572671
PRIMCOORD
24 1
Ti      3.25011934     1.88517415     5.29248298     0.11979391     0.15319950     2.01817198
Ti      5.71689939     1.29602231     8.97324415    -0.11979391    -0.15319950    -2.01817198
Ti      7.73346199     1.29602334     1.84032359     0.11993327    -0.15371963    -2.01882170
Ti      1.23355680     1.88517325    12.42540367    -0.11993327     0.15371963     2.01882170
Ti      3.25010577     0.29457583     1.84038080     0.12038321     0.15371115    -2.01759142
Ti      5.71691302     2.88662076    12.42534646    -0.12038321    -0.15371115     2.01759142
Ti      1.23354316     0.29457474     8.97318695    -0.11983736     0.15383893    -2.01976709
Ti      7.73347562     2.88662184     5.29254019     0.11983736    -0.15383893     2.01976709
O       2.83811901     1.12015336     7.27969131     1.70679661     0.39853091    -1.64605839
O       6.12889978     2.06104316     6.98603582    -1.70679661    -0.39853091     1.64605839
O       1.64544838     1.12016628     0.14687368    -1.70839995     0.39854711    -1.64662866
O       7.32157047     2.06103025    14.11885303     1.70839995    -0.39854711     1.64662866
O       6.12888614     0.47044471     0.14682735    -1.70646314    -0.39798712    -1.64535211
O       2.83813264     2.71075175    14.11889936     1.70646314     0.39798712     1.64535211
O       7.32155683     0.47043186     7.27973758     1.70772504    -0.39812056    -1.64612576
O       1.64546183     2.71076466     6.98598956    -1.70772504     0.39812056     1.64612576
O       0.32580827     1.93498420     3.85352875    -1.29182118     0.48803104     1.32279322
O       8.64121052     1.24621226    10.41219833     1.29182118    -0.48803104    -1.32279322
O       4.80931573     1.24618277     3.27938014    -1.29139052    -0.48789914    -1.32297911
O       4.15770305     1.93501375    10.98634676     1.29139052     0.48789914     1.32297911
O       0.32579463     0.34438582     3.27933460    -1.29211634     0.48832595    -1.32244714
O       8.64122415     2.83681071    10.98639229     1.29211634    -0.48832595     1.32244714
O       4.15768948     0.34441531    10.41224380     1.29186617     0.48832749    -1.32368693
O       4.80932930     2.83678116     3.85348322    -1.29186617    -0.48832749     1.32368693
