# total energy = -39020.90736067 eV

CRYSTAL
PRIMVEC
        7.60600008     0.00000000     0.00000000
        0.00000000     7.60600008     0.00000000
       -3.79573973    -3.79573973     9.71340985
PRIMCOORD
46 1
Ti      1.56827144     3.99538746     6.58369160     1.02518971    -1.39372355    -0.48523188
Ti      3.94481700     0.04959798     1.68850702    -1.86720574    -1.32047536    -3.72356014
Ti      1.81309244     0.86252844     6.15307563     2.71580046    -1.32800921    -3.45457046
Ti      4.24476499     3.26424601     1.46531202     3.25566059     2.51680651    -0.68868644
Ti     -2.03399457     3.97013046     6.29458165     0.18863111    -2.33038706     0.25756678
Ti      0.02613998    -0.08995902     1.48724398     1.80360305    -1.61861057    -3.52980122
Ti     -1.93897355     0.64600747     6.21617361    -2.19557636     2.02445833    -0.62274147
Ti      0.44428298     3.62361298     1.14310398    -3.98496764     0.80679422    -3.96401442
Ti      3.66594144     2.19875947     8.20827661     0.25079141    -0.63780428     2.66679367
Ti      5.72960201     1.56287299     3.29012097     0.68073915     4.98826594     4.75619243
Ti      3.89521246    -2.08569355     8.23004262    -3.32239462     0.18249568     4.08598246
Ti      5.76256901     6.01226098     3.58364501    -0.44436830    -1.11371951     0.48212676
Ti      0.07663143     1.86373343     8.23950664    -2.30018739     1.74381254     4.24340140
Ti      1.65617398     1.43511701     3.26620798     0.91964100    -0.35803525     1.05157053
Ti     -0.14535658    -1.59022256     8.28900863     0.65521709     0.39187355     1.67278168
Ti      1.68931899     5.68934300     3.56477402     0.47286538     1.06150939    -2.00373137
O       1.28478844     4.71486547     4.97314763     0.07384442     1.01428078    -0.29668870
O       4.02206498     1.80366600     0.37936701    -2.00744225    -1.99339887    -1.24810290
O      -1.83016455     2.37408547     5.23878762     1.19565906     0.37555064    -0.27989348
O       0.39205102     5.75498299     0.51278800    -1.29139026    -0.44779378     0.65130155
O      -1.48133953     5.44800446     5.49163163    -0.58579599     0.81145769    -1.72816326
O       0.30407901     1.69561901     0.71129799     2.49902167     0.24962490     1.87478613
O       3.38024245     3.80354647     9.23010560    -0.71832998     0.46581670    -1.53894825
O       5.34837499     3.89080198     2.89504999     0.00766858     0.47699998     1.38932542
O      -3.34921854    -0.02973553     9.00390762     0.37576301    -1.78001909    -2.16414281
O       5.10252400     0.10576999     4.51662001     1.43152469    -1.50497651     0.04135570
O       0.32910946     2.97847346     9.68665560    -0.36761852    -0.15026741     0.39471230
O       1.87325847     2.21832643     4.89999565    -0.71698015     1.52566927     0.36749331
O       0.28580445     0.31389747     9.38401162    -1.59233363    -0.23540361    -0.91554601
O       1.73444099    -0.03588700     4.54257600     1.36932737    -3.32895788    -0.47399924
O       1.73159242     2.09767846     7.50117362     2.19278363     1.78688754     2.04966363
O       3.96863998     1.63529502     2.80843199    -3.27029737     0.98588396    -0.26788180
O       1.57959647    -2.27863655     7.78281762     0.35605858     2.31921793    -0.06968721
O       4.10311001     6.17295798     2.68280298    -0.19614285    -1.79259384     1.63315736
O      -2.28843056     2.03610747     7.78209165     5.36786247     0.50132596    -0.07741903
O      -0.10687999     0.90614000     3.46445498     1.39708295     1.83407064    -1.10690840
O      -2.09996255    -2.57956155     8.01489164     3.44540164     0.64271175    -0.15728369
O       0.02940802     6.08317798     2.94499702    -1.72725617    -1.06733937     1.10375134
O       3.55981246     3.83828844     6.63918462     0.92434741     1.32352649     0.56016825
O       5.82567202     0.24485698     2.15841002    -0.00025762    -3.64116165    -3.64058444
O       3.84846446     1.26255643     6.28687862    -2.77270670    -2.52224491     1.38431279
O       6.09974800     3.10044898     0.77109100    -0.92838019     0.56412261     1.85869873
O      -0.14218056     3.57842642     7.12719162    -1.61142356     0.15711143    -0.73368770
O       2.00560601    -0.40071101     1.94560499    -0.26569327     2.31358773     0.68525941
O       0.04510643     0.58214646     6.80914461    -1.85787983    -2.07320800    -1.09994765
O       1.78731601     3.92406902     2.32232902     1.42014293    -0.42573242     1.06081982
