# total energy = -19073.96730231 eV

CRYSTAL
PRIMVEC
        5.93400000     0.00000000     0.00000000
        0.00000000     9.29699974     0.00000000
        0.00000000     0.00000000     4.64899994
PRIMCOORD
22 1
Ti      4.43196901     7.02817202     2.20647000    -0.98828203    -1.09180368     0.27637698
Ti      4.42248102     2.30781602     2.31041301    -0.07724599    -0.44976556    -0.41109718
Ti      1.51500600     7.02048900     2.60248599     0.66104964    -0.39467862     1.24640108
Ti      1.61457101     2.53344497     2.04980602    -1.24378756    -0.39897699     0.40145965
Ti      3.06198298     4.60586300     4.60316298    -0.46525003     0.95003685    -0.94109173
Ti      2.94946000     9.28903198     4.58510200    -0.44915415     0.52729823    -0.85387190
Ti      5.91190299     4.57126502     4.40198699     0.32088228    -0.22718507     0.70495561
Ti      5.85207701     9.12116399     0.30726301     0.55389527     0.17969087     0.31198394
O       4.36511699     5.68441398     0.65683999     0.89138380     0.39636244     2.00947985
O       4.28593000     0.69703000     0.99373402     1.78458331     1.83375773     0.75724595
O       1.59394898     0.92600198     0.84447301    -1.86997225     1.00768409     0.43938575
O       4.39554198     8.27786400     3.88003698     1.20829706     0.45508311     0.09562373
O       4.41145699     3.72648599     3.61125002     0.31855183    -0.66927974    -0.14549261
O       1.46268598     8.19577601     4.04297700    -0.64301257     0.06267812    -0.14205427
O       1.48832202     3.56496299     3.68596000    -0.49836148     1.11414323    -0.19998948
O       3.07079701     6.10035603     3.22021200    -1.18727726    -1.21875529    -0.15372426
O       2.95042400     1.45703997     3.17314899    -0.15264645    -0.59684223     0.23822282
O       5.83202098     6.18840800     3.30438802     0.90697755    -2.08393953    -0.11478617
O       2.87835498     7.92689603     1.67115297    -0.16807230     0.51999655    -1.39028367
O       3.13937198     3.28862901     1.26946299    -0.17733111    -0.32854751     0.28116206
O       0.04612399     8.06912501     1.83645699     0.11824354     0.74487303    -1.90986936
O       5.78853801     3.32548801     1.37380097     1.15652942    -0.33183030    -0.50003681
