# total energy = -4986.40444041 eV

CRYSTAL
PRIMVEC
        3.26791085     0.00000000     0.00000000
        1.73886145     4.81602563     0.00000000
       -0.00001130    -0.00006784     5.20301992
PRIMCOORD
6 1
Ti      2.50338049     2.40797883     2.60150996     0.00000000     0.00000000     0.00000000
Ti      0.00000000     0.00000000     0.00000000     0.00000000     0.00000000     0.00000000
O       1.97283167     0.93855923     1.01399196     0.48057253     0.03854651    -0.40221839
O       3.03392930     3.87739844     4.18902801    -0.48057253    -0.03854651     0.40221839
O       0.53054406     1.46939218     3.61550296    -0.48105384    -0.03810865    -0.40181112
O       1.20830618     3.34656547     1.58751702     0.48105384     0.03810865     0.40181112
