# total energy = -4978.95374193 eV

CRYSTAL
PRIMVEC
        4.42686472     0.00000000     0.00000000
       -0.00000719     2.95124281     0.00000000
       -2.21345845    -1.47566644     4.90422217
PRIMCOORD
6 1
Ti     -0.00019026     2.21353932     1.22605529    -0.00770740    -0.01161162    15.76241012
Ti      2.21358940    -0.73796326     3.67816622     0.00770740     0.01161162   -15.76241012
O       0.00004658     0.73780269     0.79885760     0.00619250     0.01173323    -7.65798630
O       2.21335245     0.73777332     4.10536396    -0.00619250    -0.01173323     7.65798630
O      -0.00001897    -0.73780541     3.25096858    -0.00176789    -0.00017535    -0.66251105
O       2.21341796     2.21338137     1.65325303     0.00176789     0.00017535     0.66251105
