# total energy = -39024.44074331 eV

CRYSTAL
PRIMVEC
        7.60600008     0.00000000     0.00000000
        0.00000000     7.60600008     0.00000000
       -3.79573973    -3.79573973     9.71340985
PRIMCOORD
46 1
Ti      1.67010944     4.21179243     6.23180561     1.68723437     2.80199389     1.00328211
Ti      3.71065200    -0.19353197     1.54591799     4.32594875     3.19402351    -5.21430122
Ti      1.86025346     0.32320845     6.21460661     0.87011614    -0.43019637    -1.14869501
Ti      3.87187998     3.11556202     1.32832602     0.24650358    -1.41970636    -2.96469130
Ti     -1.98844755     4.28220343     6.07890165    -1.51155262    -0.42627029    -0.32772861
Ti      0.14571700    -0.43448500     1.25193399    -2.23072747     1.77079808     0.72189790
Ti     -2.08169255     0.32991445     6.06623764     0.17515570     1.84915196    -2.34121013
Ti      0.08496899     3.42216800     1.36337502     0.42215704    -1.77827871     0.64930972
Ti      3.92353545     1.41748943     8.50290361     0.20420017    -0.58122431    -0.86104863
Ti      5.86005500     2.40029900     3.42403499     0.74900685    -1.54788644     1.72805682
Ti      3.68184343    -2.35796255     8.39554360     0.45337924    -0.09277135     0.53003774
Ti      5.67700100     6.19132498     3.42412300     2.12644786     2.46234898     0.70264830
Ti     -0.06709856     1.74215443     8.05864465    -1.02337760     0.90456225     3.81562135
Ti      2.00652900     2.23854502     3.59145498    -0.04615183    -1.14375207     0.22782116
Ti     -0.18655758    -2.07574957     8.11741264     0.03422577     0.23892988     3.55748533
Ti      1.95671300    -1.28078601     3.35460202    -2.20616340     0.89931180     3.53682805
O       1.74825145    -1.66385054     5.40084360    -0.04610144    -0.55933187     0.73238595
O       3.73106601     1.54722400     0.36243498    -0.63787216    -1.44277405    -1.62064611
O      -1.71365257     2.62335944     5.47523561    -0.76846702    -1.69939595    -1.59246424
O       0.05946698     5.13608601     0.59973399     0.07456639     1.85388305     1.71002386
O      -1.95079156    -1.49115153     5.43834364    -0.27341121     0.17208888     0.58329354
O       0.17427998     1.80659298     0.83008601     0.18573785    -4.07793362    -0.34981800
O       3.76849345     3.57080045     9.23297861    -0.70768741    -1.82329900    -2.70094436
O       5.99657299     4.36037201     3.69460898    -1.02334906     0.66881334    -0.14028021
O      -3.29363455    -0.63742056     8.88465160    -0.61780058     2.60045610    -1.95727975
O      -1.61282600     0.45053998     4.23281701    -0.96114582     0.89266627     1.19429894
O       4.05478300     6.39415100     0.02194101    -0.39492313    -0.37470603    -1.01783764
O       1.96104246     2.68530847     5.46404864    -0.53618448    -1.83553437    -1.62877106
O      -0.40372054     0.00588747     9.47570560     1.06156055     1.07527045    -2.10011229
O       1.66864499     0.45714300     4.34025201     0.57469422     0.39687152    -0.81241516
O       2.20815543     0.99099547     8.00380363    -2.36533840     0.63204707    -0.09654007
O       3.67751100     1.32267499     2.78621300    -0.00965758     3.84588890     1.71491410
O       1.61031246    -2.70626056     8.25426264     1.40933787     1.21285100    -1.92183425
O       3.81947598     6.41250700     2.99356602    -0.27289391    -3.73042216     2.99661876
O      -1.95560755     1.94511947     7.99974960     0.33387407    -1.15538734    -0.51363307
O       0.09411899     2.41256898     3.29673701     0.67643435     0.69752486    -0.72730005
O      -2.11581353    -2.72815156     7.85899264     1.95738593     1.38433362     1.32237438
O       0.13276300    -0.97594398     3.01108502    -0.97696171    -2.70232941     1.16378791
O       3.74866645     4.22938244     6.50374260    -1.66264741     0.80304092     0.28459654
O       5.67052101    -0.05613899     1.91765802     1.75676448    -1.51624617    -0.77488321
O       3.69037546     0.94205843     6.11576863     2.14131964    -1.81024267     0.68649071
O       5.76490797     3.00272799     1.52563198    -0.01337103     0.89027668     1.03839516
O      -0.17363057     3.94318746     6.91772860     0.95234288     0.18028325    -0.29994912
O       1.92950202    -0.12591799     1.66798500    -1.84039350    -0.88600016    -0.04614103
O      -0.14610356     0.40708246     6.77042862     0.34816761    -1.56464541    -0.71482942
O       2.20611403     3.36136898     1.97121801    -2.64038252     1.17091809     1.97318614
