# total energy = -4990.17631870 eV

CRYSTAL
PRIMVEC
        2.89264236     0.00000000     0.00000000
        0.00000000     4.53233691     0.00000000
        0.00000000    -0.00005882     4.53233691
PRIMCOORD
6 1
Ti      1.44632113     2.26613899     2.26616840     0.00000000     0.00000000     0.00000000
Ti      0.00000000     0.00000000     0.00000000     0.00000000     0.00000000     0.00000000
O       1.44632113     0.88327423     0.88328570    -0.00000000     0.30247240     0.30247240
O       1.44632113     3.64900375     3.64905111     0.00000000    -0.30247240    -0.30247240
O       0.00000000     1.38284091     3.14945502     0.00000000    -0.30204071     0.30204071
O       0.00000000     3.14943707     1.38288179     0.00000000     0.30204071    -0.30204071
