# total energy = -19959.94277636 eV

CRYSTAL
PRIMVEC
        7.60600008     0.00000000     0.00000000
        0.00000000     7.60600008     0.00000000
       -1.89786986    -1.89786986     4.85670466
PRIMCOORD
24 1
Ti      3.97787598     6.60533702     1.18504398    -2.42086627    -0.48699694    -0.37721337
Ti      3.77994897     2.71532801     1.20241300    -0.47761396     0.86499142    -1.17164906
Ti     -0.01069801     6.66233502     1.11913199     2.15852727     1.37668613     1.29766916
Ti     -0.09713599     2.95740300     1.30450998     0.55141621    -0.81816595     0.80575498
Ti      5.61147023     2.77385221     3.63415281     2.19424479     1.37167762     0.79087163
Ti      5.68532824    -0.88101879     3.64542482     1.39481370    -1.82923156     0.25642547
Ti      1.99623423     2.79207522     3.65821180    -1.84597176     0.67298984     0.20889655
Ti      2.02683523    -0.95534380     3.67037780    -1.45757769    -0.49464264    -2.85670982
O       3.85143198     4.68606802     0.72395798     0.20881299    -0.40082253     0.57120703
O       3.87920998     0.89349398     0.79121699     0.11695824     0.96110700    -0.20473548
O      -0.22127298     4.82140902     0.93372601     0.49377952    -2.81784218    -1.53125602
O      -0.11802600     0.94477602     0.91173801     0.33055914     1.68871841    -1.50744940
O       5.43904121     4.79499624     4.04105381     0.41011785    -0.05749709    -0.19956267
O       5.58399725     0.93145023     3.90640080     0.76334179     1.55688247     2.07681526
O       1.98932222     4.72575023     4.05798579     0.57658681    -0.00262921    -0.29387771
O       1.78740824     0.86114522     4.04007881     0.30474731     1.32302564     0.39330103
O       3.83887323     2.86263820     3.05192782    -2.28942218    -0.20656405     1.81077335
O       3.89265024    -0.56683176     3.09645480    -1.12523292    -1.46165546     0.67910342
O      -0.09238578     2.99887325     3.42333383     0.01643707    -0.41349062    -1.21798781
O       0.07809921    -0.98305078     3.12720582    -0.82088618    -0.00261378     1.04198134
O       5.74466001     6.59335099     1.58584198    -0.39433050     0.11481934     0.76975181
O       5.67126900     2.74128098     1.70343898     0.11247424     0.22259540    -0.89660828
O       1.95802298     6.75803900     1.56775698     0.22827162    -0.86245528     0.32249616
O       1.76163599     2.87777701     1.72914800     0.97081343    -0.29888648    -0.76799754
