# total energy = -4989.25225383 eV

CRYSTAL
PRIMVEC
        3.36139859     0.00000000     0.00000000
        0.00000000     4.30920631     0.00000000
        0.00000000    -0.00006328     4.83637080
PRIMCOORD
6 1
Ti      1.68069930     2.15457146     2.41818551     0.00000000     0.00000000     0.00000000
Ti      0.00000000     0.00000000     0.00000000     0.00000000     0.00000000     0.00000000
O       1.68069930     0.83978850     0.94253750    -0.00000000     0.10357487     0.02158570
O       1.68069930     3.46935443     3.89383352    -0.00000000    -0.10357487    -0.02158570
O       0.00000000     1.31475736     3.36072387     0.00000000    -0.10379522     0.02166232
O       0.00000000     2.99438556     1.47564714     0.00000000     0.10379522    -0.02166232
