# total energy = -4979.21974938 eV

CRYSTAL
PRIMVEC
        4.02373071     0.00000000     0.00000000
       -0.00000690     2.97406200     0.00000000
       -2.01188998    -1.48706990     4.56815368
PRIMCOORD
6 1
Ti     -0.00017377     2.23065601     1.14203815    -0.00567031    -0.01206079    14.35643423
Ti      2.01200740    -0.74366392     3.42611485     0.00567031     0.01206079   -14.35643423
O       0.00004197     0.74350846     0.74411478     0.00548134     0.01199909    -5.17051789
O       2.01179152     0.74348359     3.82403822    -0.00548134    -0.01199909     5.17051789
O      -0.00001801    -0.74350560     3.02819148    -0.00041138    -0.00029902     1.55154178
O       2.01185145     2.23049755     1.53996158     0.00041138     0.00029902    -1.55154178
