# total energy = -19912.78059758 eV

CRYSTAL
PRIMVEC
        6.50368529     0.00000000     0.00000000
        0.69049815     6.88736116     0.00000000
        0.00000000     0.00000000    11.65477775
PRIMCOORD
24 1
Ti      2.76646174     4.08144388     4.32383952    -0.08319373    -1.33432487     0.69368672
Ti      4.42772190     2.80591733     7.33093862     0.08319373     1.33432487    -0.69368672
Ti      5.89031845     2.80591967     1.50350300     0.15727547     0.40217750    -0.52949267
Ti      1.30386521     4.08144188    10.15127535    -0.15727547    -0.40217750     0.52949267
Ti      2.42121280     0.63776336     1.50354975    -0.08319373    -1.33432487    -0.69368672
Ti      4.77297085     6.24959812    10.15122860     0.08319373     1.33432487     0.69368672
Ti      0.95861618     0.63776083     7.33089194    -0.15727547    -0.40217750    -0.52949267
Ti      6.23556741     6.24960059     4.32388628     0.15727547     0.40217750     0.52949267
O       2.30159367     2.42515696     5.94734403     1.60606358     1.64284451    -0.27472813
O       4.89258997     4.46220432     5.70743412    -1.60606358    -1.64284451     0.27472813
O       1.43656218     2.42518482     0.11999247    -1.18621154     0.90637282     0.33248387
O       5.75762154     4.46217653    11.53478541     1.18621154    -0.90637282    -0.33248387
O       4.54734102     1.01852353     0.11995469    -1.60606358    -1.64284451    -0.27472813
O       2.64684263     5.86883775    11.53482319     1.60606358     1.64284451     0.27472813
O       5.41237259     1.01849574     5.94738188     1.18621154    -0.90637282     0.33248387
O       1.78181099     5.86886554     5.70739633    -1.18621154     0.90637282    -0.33248387
O       0.65629402     4.18928364     3.14824631     0.48380646     0.43883888     0.87133304
O       6.53788956     2.69807765     8.50653184    -0.48380646    -0.43883888    -0.87133304
O       3.75864120     2.69801351     2.67917982     0.53810124     0.92437132     0.17557556
O       3.43554244     4.18934771     8.97559819    -0.53810124    -0.92437132    -0.17557556
O       0.31104507     0.74560285     2.67914257     0.48380646     0.43883888    -0.87133304
O       6.88313851     6.14175837     8.97563538    -0.48380646    -0.43883888     0.87133304
O       3.09029349     0.74566699     8.50656903    -0.53810124    -0.92437132     0.17557556
O       4.10389016     6.14169429     3.14820912     0.53810124     0.92437132    -0.17557556
