# total energy = -19069.38062191 eV

CRYSTAL
PRIMVEC
        5.17600016     0.00000000     0.00000000
        0.00000000     5.50899976     0.00000000
        0.00000000     0.00000000     9.26300011
PRIMCOORD
22 1
Ti      1.67586397     3.37352402     3.30507298     1.82834145    -0.47126127    -0.96940318
Ti      3.80772999     2.62534798     6.25144603    -1.35381359     0.07662430    -0.85418686
Ti      4.15897202     2.30637697     1.42497601     1.54662454    -1.28437629    -0.96435456
Ti      1.28348000     2.04806000     8.15714099     1.24594626    -0.01212558    -0.20852271
Ti      1.90803398     0.48149801     1.25735102    -0.30809695     1.93699271     3.49577857
Ti      3.19574899     5.33561298     7.67205299     0.63957680    -0.15900762     0.70981294
Ti      0.61397002     0.19001099     6.10651702    -1.63577295     0.23682234    -1.64411849
Ti      4.36002498     5.11839398     3.33366602     0.17182535     0.90171475    -0.31065520
O       2.85690499     3.25716397     4.78616899     0.23277003     1.17824266    -0.08061568
O       0.92858701     2.06674901     0.63306501    -1.45716914     2.25584587     0.85186387
O       5.10665000     4.10643001     6.79525000    -1.77020493     0.59961696     0.27750390
O       3.24709098     1.43606598     0.00356999     2.00135207     1.52258755     1.74075164
O       1.69966399     0.19237001     8.90948700    -3.06524461    -4.58738222    -5.89572686
O       4.41296398     1.17609803     4.92919798     2.08989164    -1.51516091    -0.12346493
O       0.72641500     4.54456898     4.32718900    -0.65110795     1.99361305     1.71056405
O       0.04126799     3.66401502     2.25388799     0.00130921    -0.99899119     0.73120556
O       4.69763901     1.53286202     7.50251699     2.36713637    -1.89867837    -0.59181083
O       2.85639799     1.88445602     2.58160899    -1.65111318    -1.23304060     0.68289245
O       2.38336501     3.51728402     7.83316302     1.85006059     1.02324030    -1.58328771
O       4.87732199     0.40154599     1.76724802     1.20404317     1.50658602     1.30414397
O       2.38476098     1.05940698     6.40580502    -1.73208805    -0.54988255     0.87532982
O       2.83739999     4.53067401     2.15895100    -1.55426535    -0.52198042     0.84630000
