# total energy = -19517.94220777 eV

CRYSTAL
PRIMVEC
        5.93400000     0.00000000     0.00000000
        0.00000000     9.29699974     0.00000000
        0.00000000     0.00000000     4.64899994
PRIMCOORD
23 1
Ti      4.49930099     7.10879398     2.19951698    -0.07138876    -0.43928111     0.49129969
Ti      4.49979101     2.28388498     2.32475900    -0.19519000    -1.02434048     0.17400796
Ti      1.42466300     7.07846201     2.24201500    -0.09144132    -0.60010701     0.64151876
Ti      1.46286701     2.32085902     2.41602202     0.12604684    -1.34625685    -0.14907390
Ti      2.89762402     4.46709601     0.20978899     0.95183740     0.42207322     0.88565795
Ti      2.96422500     9.27960997     4.59831598     0.05403741     0.65374770    -0.52922682
Ti      5.90501300     4.56553298     4.61769101    -0.61833460     1.22588624     0.00938710
Ti      0.02845100     9.27014299     0.01986902    -0.27657933     1.26924560    -0.50807408
O       4.41752199     5.61985499     0.96190501    -0.31768820    -0.59982059    -0.32530509
O       4.42905800     0.91996602     0.90942301     0.25947043     0.17148262     0.27907818
O       1.49372302     5.60282601     0.95573899     0.58970021    -0.52037399    -0.44453567
O       1.53022799     0.83369801     0.83576001    -0.30634011     0.98470202     1.18551425
O       4.52471103     8.48667702     3.65476897    -0.68769116    -0.97110294    -0.39989745
O       4.42992802     3.66986899     3.81268399    -0.27820992     0.83178252    -0.36228040
O       1.36376799     8.56342101     3.55235598     1.34841607    -1.24049809     0.16010111
O       1.53088401     3.65686399     3.78985798    -0.03167986     1.15899280    -0.03980866
O       2.96560498     1.41729199     3.21058600     0.31758278     0.04321923     0.01429688
O       0.06433298     6.14568699     3.28095197    -0.11061533    -0.31769848    -0.41413905
O       0.02855202     1.48933302     3.35462599    -0.44261172     0.48411422    -1.17694476
O       2.96581602     7.94709901     1.30141498     0.21052740    -1.34816718     1.04813039
O       2.95432499     3.08811597     1.41252299     0.13583812     1.34536082    -0.35058213
O       0.02818599     7.92350500     1.40167898    -0.30561223     0.18023646    -0.66966695
O       0.05922001     3.27802298     1.40588002    -0.26007387    -0.36319597     0.48054270
