# total energy = -4981.52773578 eV

CRYSTAL
PRIMVEC
        2.73000329     0.00000000     0.00000000
        1.25501362     4.08925394     0.00000000
       -0.00000836    -0.00005606     4.32755078
PRIMCOORD
6 1
Ti      1.99250433     2.04459898     2.16377539     0.00000000     0.00000000     0.00000000
Ti      0.00000000     0.00000000     0.00000000     0.00000000     0.00000000     0.00000000
O       1.60958370     0.79692452     0.84337589    -7.09872076     3.15239862     3.85822763
O       2.37542502     3.29227343     3.48417484     7.09872076    -3.15239862    -3.85822763
O       0.38291721     1.24765176     3.00715225     7.09824331    -3.15205126     3.85774375
O       0.87208823     2.84154599     1.32039854    -7.09824331     3.15205126    -3.85774375
