# total energy = -19906.82662996 eV

CRYSTAL
PRIMVEC
        6.62703429     0.00000000     0.00000000
        0.35247448     7.04435571     0.00000000
        0.00000000     0.00000000    11.86464299
PRIMCOORD
24 1
Ti      2.61085714     4.17447850     4.40169792    -0.02947231    -1.11574837     0.64401093
Ti      4.36865134     2.86987695     7.46294520     0.02947231     1.11574837    -0.64401093
Ti      5.85898740     2.86987936     1.53057622     0.13397098     0.67601372    -0.58467550
Ti      1.12052116     4.17447636    10.33406704    -0.13397098    -0.67601372     0.58467550
Ti      2.43462005     0.65230091     1.53062377    -0.02947231    -1.11574837    -0.64401093
Ti      4.54488844     6.39205474    10.33401949     0.02947231     1.11574837     0.64401093
Ti      0.94428406     0.65229830     7.46289758    -0.13397098    -0.67601372    -0.58467550
Ti      6.03522450     6.39205735     4.40174554     0.13397098     0.67601372     0.58467550
O       2.22161034     2.48043729     6.05443650     1.50339554     1.47619917    -0.14844038
O       4.75789814     4.56391816     5.81020662    -1.50339554    -1.47619917     0.14844038
O       1.34017133     2.48046572     0.12215314    -1.29844717     1.11755971     0.14733095
O       5.63933723     4.56388980    11.74248964     1.29844717    -1.11755971    -0.14733095
O       4.58166104     1.04174037     0.12211467    -1.50339554    -1.47619917    -0.14844038
O       2.39784745     6.00261509    11.74252812     1.50339554     1.47619917     0.14844038
O       5.46310013     1.04171200     6.05447504     1.29844717    -1.11755971     0.14733095
O       1.51640830     6.00264358     5.81016808    -1.29844717     1.11755971    -0.14733095
O       0.45517043     4.28477632     3.20493612     0.48788655     0.06551739     0.59383378
O       6.52433812     2.75957913     8.65970707    -0.48788655    -0.06551739    -0.59383378
O       3.69238189     2.75951350     2.72742317     0.50603443     0.61545728    -0.06924318
O       3.28712666     4.28484195     9.13721975    -0.50603443    -0.61545728     0.06924318
O       0.27893333     0.76259852     2.72738530     0.48788655     0.06551739    -0.59383378
O       6.70057523     6.28175693     9.13725762    -0.48788655    -0.06551739     0.59383378
O       3.11088956     0.76266415     8.65974487    -0.50603443    -0.61545728    -0.06924318
O       3.86861899     6.28169129     3.20489819     0.50603443     0.61545728     0.06924318
