# total energy = -19517.59412558 eV

CRYSTAL
PRIMVEC
        7.60600008     0.00000000     0.00000000
        0.00000000     7.60600008     0.00000000
       -1.89786986    -1.89786986     4.85670466
PRIMCOORD
23 1
Ti      3.77350698     6.59874098     1.13184701     1.50238844     0.86048170     0.96302967
Ti      3.74685402     2.84522801     1.17199600     1.22663855    -1.29199344     2.03911851
Ti      0.10710198     6.73866402     1.18940101    -1.33014580     0.81131550    -0.68349101
Ti     -0.02152899     2.95332601     1.15493300    -0.89640439    -0.93018562     1.03814216
Ti      5.60623121     2.88680023     3.72372982     0.33283097     0.62374960    -1.76470019
Ti      5.70968224    -0.85015775     3.60446681    -0.93631333    -0.96824413    -0.33456132
Ti      1.87153324     2.69590022     3.75341381     1.82052940     0.75170471    -1.55559512
Ti      1.85410225    -1.01718980     3.55960280     1.75384139    -0.48205014     1.16966982
O       3.89272802     4.69961300     0.77348600    -0.75136353    -0.71295560     0.02224956
O       3.64995299     0.95598500     0.87709102    -0.20949716    -0.77022052    -0.77293663
O      -0.07059801     4.79994500     0.75704701     0.40933983     0.28195628     1.07530208
O       0.23011098     1.02464300     0.87682199    -0.44268705    -1.08589605    -0.50424648
O       5.75665625     4.81097121     4.08049879     0.71718944     0.43536017     0.30815788
O       5.45617623     0.97435121     4.12371284     0.33261423    -0.52062673    -0.95360349
O       2.00453824     4.64246921     4.04911779    -1.26828041     0.86971402     0.08542262
O       2.33624025     0.81674021     4.05589782    -1.41939962     0.72544885    -0.03817061
O       3.93347822     2.97108324     3.21370180    -3.14368180    -0.21799389    -0.60008902
O       3.74202422     6.32530023     3.10791382     0.92867612     1.20218452     0.73533398
O      -0.03252678    -0.61934477     3.25450782     1.28229113    -0.68912815    -0.40157201
O       5.72663798     6.61652901     1.64303699     0.24282253     0.47952043     0.07078944
O       5.65772402     2.85390302     1.64669699     1.59575705    -0.15949433     0.26074107
O       1.97495702     6.34102399     1.60337299    -2.40429139     0.69787170    -0.00916701
O       1.75374701     2.94270299     1.80257499     0.65714516     0.08948137    -0.14982364
