# total energy = -19948.38202112 eV

CRYSTAL
PRIMVEC
        5.74508528     0.00000000     0.00000000
        0.00003149     6.11450808     0.00000000
        0.00000000     0.00000000    10.28243938
PRIMCOORD
24 1
Ti      2.08233575     3.62345183     3.81471175     0.03306337    -0.65324788     0.52958420
Ti      3.66278102     2.49105631     6.46772793    -0.03306337     0.65324788    -0.52958420
Ti      4.95477782     2.49105841     1.32646700     0.03376657     0.65356850    -0.52956594
Ti      0.79033895     3.62344996     8.95597279    -0.03376657    -0.65356850     0.52956594
Ti      2.08232013     0.56619791     1.32650824     0.03306337    -0.65324788    -0.52958420
Ti      3.66279664     5.54831040     8.95593156    -0.03306337     0.65324788     0.52958420
Ti      0.79032333     0.56619563     6.46768669    -0.03376657    -0.65356850    -0.52956594
Ti      4.95479344     5.54831268     3.81475298     0.03376657     0.65356850     0.52956594
O       1.81836685     2.15302230     5.24705022     1.12003852     1.01761627     0.04686866
O       3.92674992     3.96148590     5.03538946    -1.12003852    -1.01761627    -0.04686866
O       1.05423155     2.15304692     0.10586348    -1.11981046     1.01759647     0.04635007
O       4.69088527     3.96146127    10.17657590     1.11981046    -1.01759647    -0.04635007
O       3.92673429     0.90423180     0.10583012    -1.12003852    -1.01761627     0.04686866
O       1.81838248     5.21027634    10.17660927     1.12003852     1.01761627    -0.04686866
O       4.69086965     0.90420717     5.24708358     1.11981046    -1.01759647     0.04635007
O       1.05424706     5.21030102     5.03535609    -1.11981046     1.01759647    -0.04635007
O       0.20875137     3.71919044     2.77754347     0.39248341    -0.23094326     0.26849809
O       5.53636540     2.39531770     7.50489621    -0.39248341     0.23094326    -0.26849809
O       3.08129861     2.39526071     2.36370906     0.39215843     0.23100651    -0.26857214
O       2.66381816     3.71924743     7.91873044    -0.39215843    -0.23100651     0.26857214
O       0.20873574     0.66193634     2.36367623     0.39248341    -0.23094326    -0.26849809
O       5.53638103     5.45257179     7.91876327    -0.39248341     0.23094326     0.26849809
O       2.66380253     0.66199333     7.50492899    -0.39215843    -0.23100651    -0.26857214
O       3.08131424     5.45251481     2.77751063     0.39215843     0.23100651     0.26857214
