# total energy = -19957.41079174 eV

CRYSTAL
PRIMVEC
        5.09753837     0.00000000     0.00000000
        1.07434783     5.31788479     0.00000000
        0.00000000     0.00000000     9.16988850
PRIMCOORD
24 1
Ti      2.48426993     3.15137361     3.40196335     1.24680809    -1.25527833     0.70540427
Ti      3.68761603     2.16651132     5.76792552    -1.24680809     1.25527833    -0.70540427
Ti      4.83398805     2.16651322     1.18294445    -2.09467081    -0.47589337     1.03624906
Ti      1.33789793     3.15137191     7.98694452     2.09467081     0.47589337    -1.03624906
Ti      1.94709614     0.49243141     1.18298121     1.24680809    -1.25527833    -0.70540427
Ti      4.22478983     4.82545367     7.98690775    -1.24680809     1.25527833     0.70540427
Ti      0.80072405     0.49242935     5.76788875     2.09467081     0.47589337     1.03624906
Ti      5.37116192     4.82545573     3.40200012    -2.09467081    -0.47589337    -1.03624906
O       1.99169912     1.87251766     4.67932405    -0.10340364     0.36703720    -0.61571413
O       4.18018683     3.44536726     4.49056481     0.10340364    -0.36703720     0.61571413
O       1.31369634     1.87253908     0.09440915     0.54897495    -0.65664019     0.27006389
O       4.85818967     3.44534589     9.07547945    -0.54897495     0.65664019    -0.27006389
O       3.64301302     0.78642490     0.09437939     0.10340364    -0.36703720    -0.61571413
O       2.52887293     4.53146002     9.07550922    -0.10340364     0.36703720     0.61571413
O       4.32101587     0.78640354     4.67935382    -0.54897495     0.65664019     0.27006389
O       1.85087004     4.53148144     4.49053504     0.54897495    -0.65664019    -0.27006389
O       0.83868456     3.23463892     2.47701574    -0.29687922    -0.20007355    -0.48908828
O       5.33320140     2.08324600     6.69287312     0.29687922     0.20007355     0.48908828
O       3.15484310     2.08319633     2.10795786     0.82456646    -0.53912505    -0.81393083
O       3.01704286     3.23468859     7.06193085    -0.82456646     0.53912505     0.81393083
O       0.30151075     0.57569657     2.10792856    -0.29687922    -0.20007355     0.48908828
O       5.87037521     4.74218840     7.06196015     0.29687922     0.20007355    -0.48908828
O       2.47986904     0.57574619     6.69290237    -0.82456646     0.53912505    -0.81393083
O       3.69201691     4.74213873     2.47698644     0.82456646    -0.53912505     0.81393083
