# total energy = -19517.78178883 eV

CRYSTAL
PRIMVEC
        7.60600008     0.00000000     0.00000000
        0.00000000     7.60600008     0.00000000
       -1.89786986    -1.89786986     4.85670466
PRIMCOORD
23 1
Ti      3.67869202     6.63302600     1.30975301     1.62688310    -0.84497126    -0.66854363
Ti      3.81295900     2.81216602     1.11107802     0.32876811     1.42098368     1.06140989
Ti     -0.01488602     6.55922700     1.24985401    -1.51322307     0.16765450    -0.35241070
Ti      0.09334999     2.85416899     1.05316401    -1.44844410    -0.29691676     0.72856323
Ti      5.53422321     2.95631120     3.59351983     0.56020091    -0.66281470     0.10739553
Ti      5.77096721    -0.97732476     3.72366081    -0.90308618     0.80967951    -1.18905055
Ti      2.02302923     2.94136523     3.60059482    -0.21330163     1.09435241     1.56761581
Ti      1.87491823    -0.88371876     3.66021384     0.66287512    -0.86508809     0.13728076
O       3.95274599     4.77040400     0.90748702    -0.90415524    -0.89292595    -0.56310960
O       3.42334399     0.96669899     0.69811799     0.44898626     0.11986642     0.91886505
O       7.34278801     4.67294903     0.60881599     0.74318330     2.11654936     2.19017396
O       0.17493298     0.89735301     0.87876899    -0.17670376    -0.43555712    -0.56018959
O       5.69802722     4.80264323     3.95874283     0.34418419    -1.03801310     0.66368965
O       5.82510220     1.01234820     4.10557682     0.45720993    -1.42757008    -2.00228255
O       2.15111722     4.77604625     4.12007681    -1.14907554     0.02686367     0.31102544
O       1.95472123     1.08674020     3.91895982    -0.94032759    -1.57204813     1.20599850
O       3.78918423     2.79206723     3.33960079     0.18297494    -0.03920471    -1.81060057
O       3.79196125    -0.85293377     3.23248479     0.23839406     0.48721060     0.36575961
O      -0.04649875    -1.01516776     3.16680579     0.86034389     0.30504736     0.89478923
O       5.71758302     6.57060299     1.64870501    -0.03914635     0.85555572     0.12560204
O       5.79544902     2.72073901     1.74004301     0.23749726    -0.23197684    -1.18876361
O       1.86388801     6.23380802     1.81774200    -0.14032881     0.58408852    -1.73887834
O       1.80721402     2.98424398     1.68630702     0.73629146     0.31923497    -0.20433953
