# total energy = -19074.90738135 eV

CRYSTAL
PRIMVEC
        7.60600008     0.00000000     0.00000000
        0.00000000     7.60600008     0.00000000
       -1.89786986    -1.89786986     4.85670466
PRIMCOORD
22 1
Ti      3.77287901     6.80621402     1.24810698     0.17436945    -1.14429277    -0.70981988
Ti      3.83654999     2.97476901     1.08815702     0.58606673    -0.10390449     1.15324201
Ti     -0.06169302     6.52734201     1.09110300    -0.01163707     0.20517719     0.59296603
Ti      0.02417102     2.73672101     1.16904298    -0.96141605     0.06832169     0.38182670
Ti      5.75712521     2.74046425     3.62422883     0.08030355     0.35691090    -0.97379823
Ti      6.13717120    -1.04663878     3.73249580    -1.32855455    -0.10924004    -0.52727278
Ti      1.97512821     2.99808022     3.60815179    -0.64404513    -0.23910600    -0.71788595
Ti      1.48179621    -0.88098677     3.83783880    -0.27768516    -1.16457132    -1.69491014
O       3.54995399     4.80827600     0.57410800     0.68014600    -0.49803418     1.92744234
O       4.15073199     0.96730299     0.73588600    -0.58482257     1.01053031     1.85645878
O       0.08032302     4.56677199     0.65963902     0.32724293     1.49988418     1.07012953
O       7.15458802     0.75862200     0.57732899     1.08372990     0.97161227     2.26211242
O       5.76258425     4.69612921     4.07841981     0.36651141    -0.30362940    -0.95044977
O       5.48222625     0.79587925     4.08836983     1.07123382     0.00297862    -1.34592981
O       2.00584425     4.84421322     4.22059381    -0.18492641    -0.15590995    -1.28596935
O       1.67036122     0.90704521     3.98240679     0.52481891     1.67663910     0.15154705
O       3.86482620     2.98150020     3.14138179    -0.98355994    -0.28313461     0.20970414
O      -0.02018076     3.06702524     3.26448779     1.17242476    -1.13254539    -0.90954736
O       5.67210298     6.43620498     1.81506802     0.10349980     0.18967806     0.53788629
O       5.77879702     3.16511698     1.65650799    -1.00592983    -1.15920697    -0.76087687
O       1.89795602     6.59909198     1.96260602     0.14933821     0.37146207    -0.49014706
O       1.94360798     2.69981597     1.56602599    -0.33710929    -0.05961928     0.22329191
