# total energy = -19943.35978804 eV

CRYSTAL
PRIMVEC
        5.46430693     0.00000000     0.00000000
        2.49097395     5.25519954     0.00000000
        0.00000000     0.00000000    10.05015180
PRIMCOORD
24 1
Ti      3.45669724     3.11422635     3.72853461     2.10673854    -3.72786957     1.06401056
Ti      4.49858345     2.14097312     6.32161724    -2.10673854     3.72786957    -1.06401056
Ti      5.72743758     2.14097489     1.29650117    -4.62910815     0.03224910     1.20137668
Ti      2.22784322     3.11422477     8.75365085     4.62910815    -0.03224910    -1.20137668
Ti      2.21121040     0.48662666     1.29654145     2.10673854    -3.72786957    -1.06401056
Ti      5.74407033     4.76857296     8.75361057    -2.10673854     3.72786957     1.06401056
Ti      0.98235623     0.48662473     6.32157696     4.62910815    -0.03224910     1.20137668
Ti      6.97292455     4.76857489     3.72857495    -4.62910815     0.03224910    -1.20137668
O       2.60660186     1.85044507     5.12851554     0.89148870     1.66798605    -1.18988642
O       5.34867883     3.40475440     4.92163637    -0.89148870    -1.66798605     1.18988642
O       1.87982207     1.85046630     0.10347196     0.96527785    -0.89488873     0.55356154
O       6.07545870     3.40473326     9.94667967    -0.96527785     0.89488873    -0.55356154
O       4.10319197     0.77715460     0.10343931    -0.89148870    -1.66798605    -1.18988642
O       3.85208874     4.47804492     9.94671227     0.89148870     1.66798605     1.18988642
O       4.82997182     0.77713342     5.12854813    -0.96527785     0.89488873     0.55356154
O       3.12530883     4.47806612     4.92160372     0.96527785    -0.89488873    -0.55356154
O       1.71368243     3.19651029     2.71479674     0.52592783     0.86264374     0.85901308
O       6.24159821     2.05868919     7.33535517    -0.52592783    -0.86264374    -0.85901308
O       3.90649430     2.05864028     2.31031116     1.63450771     0.34071989    -0.51709120
O       4.04878640     3.19655919     7.73984053    -1.63450771    -0.34071989     0.51709120
O       0.46819555     0.56891045     2.31027905     0.52592783     0.86264374    -0.85901308
O       7.48708509     4.68628903     7.73987264    -0.52592783    -0.86264374     0.85901308
O       2.80329952     0.56895934     7.33538717    -1.63450771    -0.34071989    -0.51709120
O       5.15198118     4.68624013     2.71476463     1.63450771     0.34071989     0.51709120
