# total energy = -19957.43113579 eV

CRYSTAL
PRIMVEC
        5.93400000     0.00000000     0.00000000
        0.00000000     9.29699974     0.00000000
        0.00000000     0.00000000     4.64899994
PRIMCOORD
24 1
Ti      4.40694199     7.04645499     2.18480898     0.41287356    -1.49947615     0.06358983
Ti      4.40368200     2.16385203     2.46360199    -0.70974661     3.81962276     0.61553004
Ti      1.49715097     6.97469300     2.51262301    -0.42109929     0.13109289     0.62589287
Ti      1.51507701     2.31564102     2.15024402    -0.56576580     2.64644004    -0.47008139
Ti      2.88301301     4.50233699     0.07134802     2.17288045     2.07984454    -1.03055432
Ti      3.09878101     0.13700198     4.56300398    -3.86917102    -4.40856295    -0.71982585
Ti      0.08191299     4.61946302     0.05072402    -2.32923624     1.57941126    -0.98784160
Ti      5.85061601     0.41679201     4.54741299     3.25760203    -3.56908049     0.56384468
O       4.40901700     5.49775898     1.05634299     0.13980996    -0.71686908    -1.22053192
O       4.42305502     0.97015499     0.90556002     1.11414426     0.36581438    -0.56900591
O       1.52390401     5.33013002     0.96712699     0.13048533     0.72226146     0.47311350
O       1.53459598     1.02689798     0.77690200    -1.28458995    -0.42754428    -0.95125916
O       4.33088298     8.26826700     3.83464399     1.51221160     2.80780279     0.40527183
O       4.52994099     3.54992499     3.76116398    -0.43255767    -0.86970631    -0.03761628
O       1.76939600     8.41468500     3.68997799    -2.04132220     0.24323493     0.89097885
O       1.46713900     3.62229601     3.74743601     0.27667291    -0.03553960     0.06611697
O       2.99363598     6.00599197     3.29416098    -0.67818553    -0.69116524     0.48475880
O       2.74741901     1.28224601     3.07612498     2.65961926     0.22152607     0.61234444
O       5.82323098     6.16463497     3.41438301     0.95017569    -0.97350769    -0.17483894
O       0.07895700     1.27275098     2.89583900    -0.75029318    -1.18080939     2.40436518
O       2.78517300     7.80308098     1.42458998     1.53114161     0.67701645    -0.27486980
O       3.07674200     3.25486798     1.65715301    -0.31310906    -0.20380859    -1.74244934
O       0.02329401     7.84363401     1.51763199    -0.44271790     0.80660190    -0.64646505
O       0.00501898     3.21741498     1.30279401    -0.31982247    -1.52459995     1.61953257
