# total energy = -4989.78285007 eV

CRYSTAL
PRIMVEC
        3.97925441     0.00000000     0.00000000
        0.39692388     3.95940868     0.00000000
       -2.18812444    -1.97973627     5.08478992
PRIMCOORD
6 1
Ti      0.29754043     2.96970713     1.27119723    -0.00013215     0.00013215    -0.00000000
Ti      1.89051307    -0.99003504     3.81359208     0.00013215    -0.00013215     0.00000000
O       0.09927292     0.98984591     0.82827064    -0.00047900    -0.00110712    -0.65815149
O       2.08878047     0.98982608     4.25651878     0.00047900     0.00110712     0.65815149
O      -0.09925089    -0.98982598     3.37066549    -0.00110712    -0.00047900    -0.65815149
O       2.28730422     2.96949792     1.71412393     0.00110712     0.00047900     0.65815149
