# total energy = -4977.23651262 eV

CRYSTAL
PRIMVEC
        4.35840805     0.00000000     0.00000000
       -0.00000707     2.90560503     0.00000000
       -2.17922971    -1.45284685     4.82838369
PRIMCOORD
6 1
Ti     -0.00018732     2.17930933     1.20709567    -0.00896518    -0.01273056    17.28628450
Ti      2.17935863    -0.72655145     3.62128736     0.00896518     0.01273056   -17.28628450
O       0.00004586     0.72639337     0.78650413     0.00704765     0.01297148    -8.56261154
O       2.17912535     0.72636446     4.04187895    -0.00704765    -0.01297148     8.56261154
O      -0.00001868    -0.72639604     3.20069587    -0.00158329    -0.00014604    -0.25698520
O       2.17918984     2.17915382     1.62768726     0.00158329     0.00014604     0.25698520
