# total energy = -19934.55327589 eV

CRYSTAL
PRIMVEC
        6.05563043     0.00000000     0.00000000
        0.00003319     6.44502203     0.00000000
        0.00000000     0.00000000    10.83824692
PRIMCOORD
24 1
Ti      2.19489444     3.81931409     4.02091238     0.04362212    -0.82343697     0.61677960
Ti      3.86076918     2.62570800     6.81733484    -0.04362212     0.82343697    -0.61677960
Ti      5.22260364     2.62571021     1.39816792     0.04448730     0.82340946    -0.61673177
Ti      0.83305998     3.81931212     9.44007943    -0.04448730    -0.82340946     0.61673177
Ti      2.19487797     0.59680320     1.39821139     0.04362212    -0.82343697    -0.61677960
Ti      3.86078565     5.84821907     9.44003596    -0.04362212     0.82343697     0.61677960
Ti      0.83304351     0.59680080     6.81729138    -0.04448730    -0.82340946    -0.61673177
Ti      5.22262012     5.84822147     4.02095585     0.04448730     0.82340946     0.61673177
O       1.91665695     2.26940188     5.53067455     1.34093570     1.22983237     0.03173051
O       4.13900667     4.17562027     5.30757267    -1.34093570    -1.22983237    -0.03173051
O       1.11121704     2.26942784     0.11158583    -1.34066136     1.22999101     0.03099955
O       4.94444664     4.17559431    10.72666109     1.34066136    -1.22999101    -0.03099955
O       4.13899020     0.95310920     0.11155066    -1.34093570    -1.22983237     0.03173051
O       1.91667342     5.49191289    10.72669625     1.34093570     1.22983237    -0.03173051
O       4.94443017     0.95308324     5.53070972     1.34066136    -1.22999101     0.03099955
O       1.11123339     5.49193891     5.30753750    -1.34066136     1.22999101    -0.03099955
O       0.22003522     3.92022776     2.92768095     0.47190842    -0.27533363     0.31880071
O       5.83562840     2.52479433     7.91056628    -0.47190842     0.27533363    -0.31880071
O       3.24785529     2.52473426     2.49147712     0.47182743     0.27566144    -0.31897812
O       2.80780833     3.92028783     8.34676992    -0.47182743    -0.27566144     0.31897812
O       0.22001875     0.69771668     2.49144251     0.47190842    -0.27533363    -0.31880071
O       5.83564487     5.74730541     8.34680453    -0.47190842     0.27533363     0.31880071
O       2.80779186     0.69777675     7.91060082    -0.47182743    -0.27566144    -0.31897812
O       3.24787176     5.74724534     2.92764634     0.47182743     0.27566144     0.31897812
