# total energy = -4987.04054639 eV

CRYSTAL
PRIMVEC
        3.01189940     0.00000000     0.00000000
        1.60263728     4.43873330     0.00000000
       -0.00001041    -0.00006253     4.79541006
PRIMCOORD
6 1
Ti      2.30726312     2.21933533     2.39770503     0.00000000     0.00000000     0.00000000
Ti      0.00000000     0.00000000     0.00000000     0.00000000     0.00000000     0.00000000
O       1.81827804     0.86503155     0.93455480    -2.39052493     1.23446499     1.23228624
O       2.79624821     3.57363911     3.86085531     2.39052493    -1.23446499    -1.23228624
O       0.48898070     1.35427851     3.33226079     2.39053779    -1.23448016     1.23244359
O       1.11364625     3.08439214     1.46314932    -2.39053779     1.23448016    -1.23244359
