# total energy = -4988.10796538 eV

CRYSTAL
PRIMVEC
        3.78150197     0.00000000     0.00000000
        1.45441711     3.49062001     0.00000000
       -2.61799465    -1.74533341     4.92950167
PRIMCOORD
6 1
Ti      1.09071061     2.61809939     1.23237516     0.00054070    -0.00054070     0.00000000
Ti      1.52721394    -0.87281276     3.69712584    -0.00054070     0.00054070     0.00000000
O       0.36364359     0.87265043     0.80297542    -0.00017818    -0.00011261    -1.66628681
O       2.25428078     0.87263613     4.12652563     0.00017818     0.00011261     1.66628681
O      -0.36361093    -0.87262866     3.26772615    -0.00011261    -0.00017818    -1.66628681
O       2.98153524     2.61791518     1.66177495     0.00011261     0.00017818     1.66628681
