# total energy = -19959.98821368 eV

CRYSTAL
PRIMVEC
        7.60600008     0.00000000     0.00000000
        0.00000000     7.60600008     0.00000000
       -1.89786986    -1.89786986     4.85670466
PRIMCOORD
24 1
Ti      3.78090298     6.71836399     1.31635799    -0.56319521    -2.07322960    -1.03415798
Ti      3.78380398     2.84539301     1.23776099     0.08087022     1.51107414    -1.23682115
Ti     -0.03873800     6.52408100     1.19435401     0.30843145    -1.09480827     0.23635389
Ti      0.06906398     2.71034200     1.23230702     0.11732874     1.58215848    -0.40153370
Ti      5.74024022     2.73721621     3.55796383     0.33521207     1.47326683     1.26849535
Ti      5.69380322    -1.02539279     3.63867183     0.44614647    -1.45045316    -0.70946841
Ti      1.90793222     2.94729625     3.60675381    -0.15811982     1.66866508     2.02082818
Ti      1.85844822    -0.83196279     3.69748183    -0.56192483    -1.95802408    -1.35984771
O       3.87095598     4.86698202     0.69889302    -0.04857870    -2.16758012     0.33233295
O       3.80141801     0.87611501     0.82729201     0.20856719     3.55591978     0.61447974
O       0.05197801     4.65051302     0.62037402    -0.40784473    -0.88836249     0.77385477
O      -0.02124901     0.73022000     0.78607698    -0.07033872     3.90955561     0.17292963
O       5.64727325     4.67695823     4.10214579     0.11555750     0.06369088    -1.06238408
O       5.95511825     0.85104725     3.95979579    -0.92043316     0.26458847     0.55276630
O       1.77179021     4.80365925     4.21462379     0.40947841     0.35451361    -1.46899725
O       1.73287822     0.99350721     4.07670883     0.37238406     0.39067310    -0.19310869
O       3.76838021     3.14056823     3.04863279     0.90910051    -1.27710752     1.81331206
O       3.71961224    -0.94579675     3.28743281     1.05671402     0.37777413     0.42423218
O       0.07522821     3.16833924     3.17593881    -1.10691586    -1.65782197    -0.87666577
O      -0.03719375    -1.02681178     3.17864079    -0.22124582    -0.17096043     0.56939080
O       5.67809301     6.42317399     1.57252402     0.07386191     0.72528430     1.30594991
O       5.75446498     2.90426397     1.67866502     0.39092455    -0.80056366    -1.58248810
O       1.85931602     6.74647102     1.67012103     0.12999914    -0.49345144     0.42256019
O       1.93766098     3.21549301     1.60675300    -0.89597990    -1.84480114    -0.58201364
