# total energy = -19960.24198077 eV

CRYSTAL
PRIMVEC
        7.60600008     0.00000000     0.00000000
        0.00000000     7.60600008     0.00000000
       -1.89786986    -1.89786986     4.85670466
PRIMCOORD
24 1
Ti      3.73170002     6.58240703     1.32470798     0.24942821     0.60594342    -1.48811392
Ti      3.82284599     2.89710500     1.24571198    -0.91415838    -0.34891605    -1.27871035
Ti     -0.02195202     6.58107001     1.15698499    -0.03845729     2.12448019     1.48208314
Ti      0.04829102     2.94823199     1.12662900    -0.61149238    -1.28804500     1.00632887
Ti      5.77085624     2.89393523     3.56652581     1.05443448     0.55714078     0.58392063
Ti      5.68784320    -0.98190379     3.67017983     2.41443774    -0.07065600     0.31711792
Ti      1.88824524     2.90152125     3.58494081    -0.95562618    -0.19085897     1.07854629
Ti      1.90784724    -0.98097878     3.63547983    -2.19053854     0.03016445     1.13999028
O       3.64309300     4.74402298     0.74070601     0.38697020    -0.85442238     0.55835794
O       3.55131302     0.87733302     0.82515302     1.06231414     1.36625542     0.74545641
O       0.05560198     4.82692997     0.80528299    -0.39902585    -1.46756360    -1.24781828
O       0.19254501     0.99581898     0.73587002    -1.24364589    -0.70519190     0.35480157
O      -1.52088076     4.79266421     4.05418381    -1.48941156    -1.49100770    -0.06038264
O       5.96749121     0.95635125     4.17122882    -1.25565834     0.90957333    -2.43052540
O       1.62921621     4.74200020     4.23136881     0.90510630    -0.52687400    -1.27220803
O       1.75543324     0.94287622     3.99548779     1.11506729    -0.28434920     0.72505933
O       3.82458825     3.01560821     3.25253579    -0.37082238    -0.56012917    -0.35227572
O       3.81761724    -1.19670879     3.31562779    -0.33107876     0.53234788    -0.02165358
O      -0.01486877     2.73198021     3.17061481    -0.86041459     0.29751814     0.08680742
O      -0.04862075    -1.07764978     3.15273582     0.47333178     0.98558443    -0.04432943
O       5.73327598     6.52515597     1.58061397    -1.58890018     0.72662693    -0.03278389
O       5.64599899     3.07103202     1.55973402     0.37364519    -0.77610886     0.24006759
O       1.83629798     6.50791998     1.74422600     1.41395068     0.24590220    -0.06972834
O       1.77128500     2.97296002     1.67933998     2.80054430     0.18258567    -0.02000782
