# total energy = -4986.64388968 eV

CRYSTAL
PRIMVEC
        3.57137275     0.00000000     0.00000000
        1.21283031     3.35912874     0.00000000
       -2.39213411    -1.67958725     4.63147695
PRIMCOORD
6 1
Ti      0.90951977     2.51947540     1.15786929     0.00089706    -0.00089706     0.00000000
Ti      1.48254856    -0.83993434     3.47360776    -0.00089706     0.00089706     0.00000000
O       0.30324478     0.83977756     0.75442980     0.00039235     0.00087726    -0.68810254
O       2.08882338     0.83976338     3.87704735    -0.00039235    -0.00087726     0.68810254
O      -0.30321582    -0.83975727     3.07016828     0.00087726     0.00039235    -0.68810254
O       2.69528392     2.51929817     1.56130888    -0.00087726    -0.00039235     0.68810254
