# total energy = -19960.42621811 eV

CRYSTAL
PRIMVEC
        5.57040380     0.00000000     0.00000000
        0.00002772     5.36396598     0.00000000
        0.00000000     0.00000000     9.51884238
PRIMCOORD
24 1
Ti      2.01901991     3.17868122     3.53142272    -0.03776772     0.08102320    -0.25788483
Ti      3.55141160     2.18528465     5.98741999     0.03776772    -0.08102320     0.25788483
Ti      4.80412473     2.18528649     1.22796061    -0.03555374    -0.08152868     0.26138256
Ti      0.76630684     3.17867965     8.29088226     0.03555374     0.08152868    -0.26138256
Ti      2.01900611     0.49669834     1.22799880    -0.03842541     0.05556542     0.26053101
Ti      3.55142547     4.86726769     8.29084407     0.03842541    -0.05556542    -0.26053101
Ti      0.76629298     0.49669639     5.98738186     0.03530152     0.05537695     0.25890838
Ti      4.80413854     4.86726970     3.53146090    -0.03530152    -0.05537695    -0.25890838
O       1.76307775     1.88874354     4.85739253     0.53854707     0.21467151     0.13841899
O       3.80735382     3.47522233     4.66145018    -0.53854707    -0.21467151    -0.13841899
O       1.02217631     1.88876523     0.09800182    -0.54015144     0.21652836     0.13689484
O       4.54825531     3.47520069     9.42084067     0.54015144    -0.21652836    -0.13689484
O       3.80733996     0.79323929     0.09797096    -0.53872447    -0.21546007     0.13774562
O       1.76309161     4.57072659     9.42087153     0.53872447     0.21546007    -0.13774562
O       4.54824145     0.79321765     4.85742345     0.53850104    -0.21521710     0.13803538
O       1.02219001     4.57074828     4.66141932    -0.53850104     0.21521710    -0.13803538
O       0.20240261     3.26266820     2.57127687     0.15295010    -0.13584326     0.19641718
O       5.36802896     2.10129773     6.94756584    -0.15295010     0.13584326    -0.19641718
O       2.98760944     2.10124781     2.18817476     0.15286474     0.13693778    -0.19780661
O       2.58282208     3.26271812     7.33066785    -0.15286474    -0.13693778     0.19780661
O       0.20238875     0.58068515     2.18814433     0.15223070    -0.13671023    -0.19738058
O       5.36804277     4.78328078     7.33069822    -0.15223070     0.13671023     0.19738058
O       2.58280827     0.58073507     6.94759622    -0.15321852    -0.13597053    -0.19693681
O       2.98762330     4.78323080     2.57124649     0.15321852     0.13597053     0.19693681
