# total energy = -19516.61067660 eV

CRYSTAL
PRIMVEC
        5.17600016     0.00000000     0.00000000
        0.00000000     5.50899976     0.00000000
        0.00000000     0.00000000     9.26300011
PRIMCOORD
23 1
Ti      1.87735202     3.20474002     3.34133099     0.71710305    -2.11482698     2.97888611
Ti      3.28469802     2.23540700     6.00769598    -0.48829535     0.76105762    -2.90426573
Ti      4.48490102     2.12588901     1.37466401    -0.98514194    -1.13326068     1.42903252
Ti      0.84523302     3.32192998     7.70196500     1.86886796     1.03117833    -1.08735618
Ti      2.07735599     0.23519801     1.33704898    -1.23197076     1.51699488    -0.09273664
Ti      3.23846603     5.19763002     8.01400998     0.66736581     1.56438084    -2.31298429
Ti      0.72241098     0.54683600     5.86534502    -0.39221885     0.09086925    -2.94668072
Ti      4.50386499     4.91856998     3.39347998     0.46629544     0.27022716     2.95867749
O       1.48766198     1.88878902     4.65802300    -0.03361796    -0.15459998     1.38021805
O       3.39909498     3.39003398     4.44272300     1.77375639     0.61117253     0.04800251
O       0.14491000     2.71468300     9.21387801     0.24416927     0.34358461     1.25580310
O       3.36706599     0.97715701     0.19714599     0.80064594    -0.49211370    -1.42117574
O       1.97745701     4.54354698     9.05393001    -1.21946003    -1.10447691     0.98070113
O       4.14873800     0.60015299     4.99085400    -0.31387551     0.54495632    -0.41842817
O       1.00763402     4.81268902     4.46404699    -0.41257351    -0.57410081    -0.34151667
O       0.18422200     3.33159402     2.61973500    -1.36838429     0.65713307    -1.16641738
O       4.87731500     2.06365702     6.99578997    -0.98338459    -0.44933258    -1.69839579
O       2.72496301     1.79955900     2.24220000    -0.33314079     1.41008708     0.59226515
O       2.49273902     3.91263599     6.66570302     0.00473109    -0.80674562     1.58626839
O       0.26177801     0.69926000     2.07671198     0.34048232    -1.15502739    -0.43430242
O       5.13109598     4.85265900     7.21452999    -1.23096135    -0.40670496     1.01327162
O       2.12114599     1.14065601     7.09783498     0.87396483    -0.26645458     0.75747144
O       2.86334698     4.51499702     2.32422099     1.23564281    -0.14399726    -0.15633779
