# total energy = -19518.26206820 eV

CRYSTAL
PRIMVEC
        7.60600008     0.00000000     0.00000000
        0.00000000     7.60600008     0.00000000
       -1.89786986    -1.89786986     4.85670466
PRIMCOORD
23 1
Ti      3.75610398     6.61234301     1.29862097     1.97118839     0.52182512    -0.72470786
Ti      3.77260701     2.85765801     1.09285998    -1.19891896    -0.78275131     0.78827353
Ti      0.06306502     6.60738202     1.27345801    -1.98116710     0.21394132     0.03997810
Ti      0.04741698     2.84282401     1.01865599     1.42082787    -0.44679413     0.09189975
Ti      5.53797222     2.86784922     3.63032580    -0.57873060     0.37333820    -0.18012050
Ti      5.67632222    -1.04494176     3.67020883     1.54979651     0.07498137    -0.69329205
Ti      1.89653422     3.01281220     3.69148880     0.25560683    -1.83193971    -0.69686846
Ti      1.98258522    -0.94663280     3.67912679    -1.54859658     0.92664264     0.49896749
O       3.87401499     4.71346702     0.82682199    -0.77655109     0.98616858     0.19170667
O       4.17006501     0.90613402     0.71310699    -0.53218564     0.70193405     0.55609074
O       0.13408600     4.72140901     0.91201201     0.57688043     1.22009535    -1.03730116
O      -0.26320800     0.96043099     0.74964800     0.72166727    -0.58961125    -0.43038663
O       5.63057321     4.74887924     4.01926981     0.93633724    -0.47757282     0.59283002
O       5.83491421     1.05331425     3.91618179    -0.17306590    -0.96595559     0.41454657
O       1.66385022     4.81300822     4.06300483    -0.18364420    -0.69069884    -0.04512571
O       1.61812523     1.03850623     4.02954680     0.60823402    -0.61933013     0.46232849
O       3.68907024     2.89880324     3.43833479     1.45753758     0.02300675    -1.26171124
O       3.84639824    -1.04731078     3.30420280    -1.46380619     0.56868555    -1.13115417
O       0.04738523    -0.93218377     3.17521781    -0.50576189    -0.20625654     0.50077935
O       5.69714101     6.42798099     1.62454500    -0.19776444     0.62278364     0.39324369
O       6.00527198     2.99409901     1.77527701    -1.83597763    -0.31175589     0.82765204
O       1.89555000     6.85737001     1.60812701     1.32029693    -0.24296754     0.18566123
O       1.91392902     2.52171100     1.51464600     0.15779766     0.93223144     0.65670987
