# total energy = -19899.91977871 eV

CRYSTAL
PRIMVEC
        6.78084490     0.00000000     0.00000000
        1.77649495     6.99480311     0.00000000
        0.00000000     0.00000000    12.23364699
PRIMCOORD
24 1
Ti      3.51047948     4.14511405     4.53859601    -0.34487042    -1.68834508     0.56995413
Ti      5.04686058     2.84968952     7.69505167     0.34487042     1.68834508    -0.56995413
Ti      6.57178717     2.84969194     1.57817899     0.31209167    -0.37034904    -0.28626596
Ti      1.98555292     4.14511190    10.65546882    -0.31209167     0.37034904     0.28626596
Ti      2.62223215     0.64771255     1.57822804    -0.34487042    -1.68834508    -0.56995413
Ti      5.93510794     6.34709129    10.65541978     0.34487042     1.68834508     0.56995413
Ti      1.09730545     0.64770986     7.69500262    -0.31209167     0.37034904    -0.28626596
Ti      7.46003463     6.34709391     4.53864506     0.31209167    -0.37034904     0.28626596
O       2.77171431     2.46298924     6.24273671     1.73402358     1.89777257    -0.55313371
O       5.78562568     4.53181434     5.99091097    -1.73402358    -1.89777257     0.55313371
O       1.86982316     2.46301746     0.12595229    -0.78389082     0.17144456     0.88687100
O       6.68751698     4.53178623    12.10769504     0.78389082    -0.17144456    -0.88687100
O       4.89737832     1.03441263     0.12591259    -1.73402358    -1.89777257    -0.55313371
O       3.65996173     5.96039093    12.10773474     1.73402358     1.89777257     0.55313371
O       5.79926961     1.03438446     6.24277640     0.78389082    -0.17144456     0.88687100
O       2.75807038     5.96041919     5.99087127    -0.78389082     0.17144456    -0.88687100
O       1.32692871     4.25463592     3.30461345     0.52498861     1.56802487     1.69656593
O       7.23041127     2.74016765     8.92903423    -0.52498861    -1.56802487    -1.69656593
O       4.33271325     2.74010242     2.81224933     0.53220955     1.64445017     0.91658808
O       4.22462681     4.25470121     9.42139814    -0.53220955    -1.64445017    -0.91658808
O       0.43868136     0.75723422     2.81221025     0.52498861     1.56802487    -1.69656593
O       8.11865871     6.23756942     9.42143721    -0.52498861    -1.56802487     1.69656593
O       3.33637944     0.75729944     8.92907323    -0.53220955    -1.64445017     0.91658808
O       5.22096061     6.23750413     3.30457437     0.53220955     1.64445017    -0.91658808
