# total energy = -19073.83445342 eV

CRYSTAL
PRIMVEC
        5.93400000     0.00000000     0.00000000
        0.00000000     9.29699974     0.00000000
        0.00000000     0.00000000     4.64899994
PRIMCOORD
22 1
Ti      4.37856301     7.05714300     2.34489600     1.44198549    -1.75554115     1.20917741
Ti      4.40408502     2.30454300     2.13593898     0.41527908     0.59309973     0.84180751
Ti      1.52637098     7.17644500     2.49851002    -0.82325828    -0.44864841     2.16132000
Ti      1.63357102     2.42563601     2.16605298    -1.06698738     0.36747866     0.58237077
Ti      3.02904498     4.51771202     4.43911999     0.14070727     0.64998720    -0.03327086
Ti      2.99368398     0.02357998     0.12913100    -0.77711056     0.19972980    -1.44754524
Ti      5.79594898     4.60799702     4.51260398    -0.21101180     0.40782082    -0.64691576
Ti      5.87673498     9.25937498     0.25411600     1.20829526    -0.96641427    -0.38049898
O       4.36638802     5.41097899     0.89658798     0.26823224     0.19670952     0.52074783
O       4.46180201     0.65699700     1.23649001    -0.01836771     0.37272499    -0.55108403
O       1.50916298     0.77181100     1.15040599    -0.48473489     0.62136259    -0.36792937
O       4.37473600     8.37233299     3.80335702     0.69792544     1.05903624     0.41527240
O       4.40452101     3.97889501     3.34295498     0.81711797    -1.35399665     0.40215102
O       1.52393401     8.21030902     4.06424199    -0.12323122     1.13236902    -1.21440035
O       1.45965803     3.90064700     3.60644102    -0.32271676    -0.76544186    -0.57465334
O       2.99371202     6.09202302     3.30493699    -0.78041572     0.36553361    -0.64393817
O       3.08465198     1.55837599     3.28225100    -0.69169797    -0.53687225     0.65723232
O       5.92162599     6.23290598     3.45473802     0.52422319    -1.10542899    -0.46336875
O       3.00015698     7.88196099     1.47754400    -0.93058157    -0.22488085    -0.21782780
O       3.03882999     2.92187499     1.04128202    -0.07344410     1.29358701    -0.24173367
O       0.01752497     7.94431300     1.57324301     0.17769518    -0.86510840    -0.25550424
O       5.91528300     2.92005801     1.14189000     0.61209659     0.76289390     0.24859183
