# total energy = -19958.48974808 eV

CRYSTAL
PRIMVEC
        7.60600008     0.00000000     0.00000000
        0.00000000     7.60600008     0.00000000
       -1.89786986    -1.89786986     4.85670466
PRIMCOORD
24 1
Ti      3.75711699     6.53758402     1.30007298     1.20596327     1.96363860     1.07131018
Ti      3.48177903     2.89669002     1.25873900     2.33130649    -1.03091839     0.38219231
Ti      0.16974599     6.53891299     1.18379099    -2.20588572     1.86815679    -1.90504982
Ti      0.10614999     3.08377598     1.16138298    -5.32527830    -1.73952857    -2.17179571
Ti      5.69283123     2.89231023     3.37889681    -0.11659443     0.29661208     0.33306083
Ti      5.96375125    -0.90909979     3.60251780    -1.27114359    -0.44659616     1.17049001
Ti      1.75222520     2.81850424     3.70967979    -0.36676157     0.21735960     0.87634438
Ti      1.95367822    -1.01359679     3.73910480     0.81934403    -0.12997137     0.72361617
O       3.42639899     4.75691998     0.94289601     0.35694947    -2.00515833    -0.87786570
O       3.78534298     0.78334500     0.93805097    -0.01695206     1.97369368    -1.28847026
O       0.49187502     4.79630501     0.81836500    -0.81471476    -0.82161483    -0.48808992
O       0.10750903     1.03201798     0.59492202     0.05840392    -0.39987765     1.28725901
O       5.63477323     4.63438322     4.00381482    -0.12327544     1.46201285     0.79250916
O       5.75024024     1.05778024     3.95592782     0.22340324    -0.41801731     0.34109681
O       1.93636825     4.60959820     4.05816884     0.40250558     0.95255885     1.14063563
O       1.55347925     0.86245224     4.00261581     0.60490752     0.44225382     1.56674446
O       3.77034123     2.97883621     3.12826380    -1.80304230    -1.11621965    -0.28862906
O       3.78020922    -0.98205079     3.38514581    -0.72012204     0.01590896    -1.28576700
O      -0.05194975     3.07847521     3.33636980     0.83126907    -0.51525672    -0.94053740
O       0.16321922     6.28579323     3.06733883    -0.85068194     0.46257017     1.96918447
O       5.75937299     6.45157901     1.77910402    -0.99815121     0.22206318    -2.04062312
O       5.68436302     2.94515398     1.54862500     0.23897924     0.19706125    -0.93474881
O       1.85713200     6.84855900     1.56673900     2.75737907     0.09016142     0.86931370
O       1.67224700     2.88410401     1.81947601     4.78219246    -1.54089252    -0.30217981
