# total energy = -19958.53380551 eV

CRYSTAL
PRIMVEC
        7.60600008     0.00000000     0.00000000
        0.00000000     7.60600008     0.00000000
       -1.89786986    -1.89786986     4.85670466
PRIMCOORD
24 1
Ti      3.93914301     6.62030702     1.24404999     0.17222669    -2.62346799    -0.73932022
Ti      3.68816599     2.60019597     1.40208698    -1.66204269     1.41770090     0.00510338
Ti      0.21986399     6.81683202     1.07974601    -0.79196460    -1.42165268     0.39323212
Ti     -0.14091498     2.85749402     1.06479898     0.78619787     0.96374727     1.81068310
Ti      5.73298223     3.09038625     3.68824880     0.41177826    -0.88715639    -2.84072141
Ti      5.73011420    -0.79201578     3.56445281     1.48463908    -0.50495199    -0.26221508
Ti      1.75053025     2.73033923     3.80771184     0.01909405     0.05488510    -1.11727998
Ti      1.76087122    -0.95440879     3.67263680    -0.59106213    -0.48298602    -0.93743407
O       3.59726402     4.66391502     0.82651200     0.26982812    -0.17678552     1.16081083
O       3.90591703     0.74650098     0.72629302     0.33009506     1.70886147     1.21980661
O       0.11390800     4.80393802     0.56199100    -0.05252329    -0.40070940     2.81408194
O       0.13529401     1.00509001     0.80205099    -1.27897389     0.81993153    -1.37848179
O      -1.53043178     4.85704323     3.99996082    -1.00540867     0.89794860    -0.35055488
O      -1.53293479     0.95705923     4.06458781    -1.21100366    -0.28279060    -1.39742543
O       1.75798525     4.54929925     4.12514283     0.35021806     1.91943772    -0.31439230
O       1.54088224     0.79978823     4.25939182     0.68703810    -0.29829513    -0.67590033
O       3.63415122     2.51734724     3.40399479     1.09192863     0.51885370    -0.81766433
O       3.84235723    -1.05131877     3.15132482     1.14380503     0.45330880     0.63362290
O      -0.01246779     3.00594422     2.93900282    -0.70820420    -0.54845610     1.87800772
O      -0.02803475    -0.95237480     3.07400684     1.05555265    -0.30561480     1.31920652
O       6.02840798     6.68504598     1.40836699    -4.76776034    -0.16586990     0.89470824
O       5.55853202     3.11912100     1.70062000     0.03388715    -1.06281422    -1.26304410
O       1.89380499     6.72794098     1.76180897     2.40909062    -0.03921242    -0.48817554
O       1.79226101     2.61177802     1.57366498     1.82356382     0.44608888     0.45334582
