# total energy = -4979.01847593 eV

CRYSTAL
PRIMVEC
        5.03917138     0.00000000     0.00000000
       -0.00000763     3.02350283     0.00000000
       -2.51961407    -1.51180657     5.48787498
PRIMCOORD
6 1
Ti     -0.00021600     2.26773459     1.37196838    -0.00828281    -0.00825967    13.20620195
Ti      2.51976551    -0.75603844     4.11590593     0.00828281     0.00825967   -13.20620195
O       0.00005337     0.75586600     0.89392988     0.00509850     0.00901738    -6.99345950
O       2.51949603     0.75583009     4.59394449    -0.00509850    -0.00901738     6.99345950
O      -0.00002076    -0.75587606     3.63786737    -0.00241992    -0.00004062    -2.19816983
O       2.51957010     2.26757209     1.85000694     0.00241992     0.00004062     2.19816983
