# total energy = -19074.03614293 eV

CRYSTAL
PRIMVEC
        7.60600008     0.00000000     0.00000000
        0.00000000     7.60600008     0.00000000
       -1.89786986    -1.89786986     4.85670466
PRIMCOORD
22 1
Ti      3.64808599     6.61646800     1.37956800     0.08157985    -0.24037767     0.91401003
Ti      3.83082000     2.92553801     1.23788201     1.85611734    -0.82775257     2.27934576
Ti     -0.01205101     6.51786698     0.96598698     0.07723160     1.30269361     1.58555209
Ti      0.28716401     2.84205601     1.03702998    -1.57908602    -1.43827821    -1.15821915
Ti      5.89220124     2.92913822     3.45463483    -1.31254454    -0.89601976    -1.38824761
Ti      5.82204520    -0.93028577     3.46742880     1.01583321     0.69828540     1.69469468
Ti      1.86258824     2.90733622     3.63873580     1.01427178    -0.57840278     0.80623320
Ti      1.25384723    -1.06972779     4.03026680     0.37963252     2.42617123    -1.69859376
O       3.50310699     4.75006502     0.97257100     0.30338463     2.33103601     0.56750130
O       4.03573098     1.02025501     0.87124801    -0.73974368    -0.59535124     0.32407173
O       0.16797599     4.69141202     0.71673598     0.33419366     0.32816622    -0.17292012
O      -0.18098698     0.90029698     0.49059801     0.13581935     0.75264882     1.41893605
O      -1.41896377     4.72388223     3.98866283    -0.28743684     1.00620237    -0.42780370
O       5.96699024     1.04577924     3.80935483     0.40055565    -1.35508834     0.37550024
O       1.69848921     4.84508022     4.37538282     0.15133493    -2.27648618    -1.65165132
O       1.59435120     1.20170624     4.32234280    -0.25049547    -1.98883157    -3.04530776
O       3.99168221     2.94439424     3.32179779    -1.76939888     0.47275251     0.08619832
O       0.18431021     3.09065322     2.88706481    -0.53439088     0.12466795     1.85367196
O       5.72074099     6.51518903     1.64386902    -0.13761603    -0.37242263    -1.24335253
O       5.75644701     3.05345597     1.53730002     0.30966249    -0.32750493    -0.07139930
O       1.78969101     6.52467299     2.19652602    -0.02012172     0.77245943    -0.41381741
O       1.98468499     2.33791599     1.75062301     0.57121783     0.68143206    -0.63440246
