# total energy = -19959.33024362 eV

CRYSTAL
PRIMVEC
        7.60600008     0.00000000     0.00000000
        0.00000000     7.60600008     0.00000000
       -1.89786986    -1.89786986     4.85670466
PRIMCOORD
24 1
Ti      3.75011100     6.50041900     1.28652700    -0.47279211     0.53492258    -0.96503256
Ti      3.75032399     2.79909301     1.27474799    -0.61809523    -0.48950737    -0.81166954
Ti      0.06476098     6.75927701     1.14966700    -0.59829361    -0.58936494     1.29796149
Ti     -0.05384098     2.94082700     1.13571402     1.31673775     0.95881178     0.25586600
Ti      5.73071323     3.04494522     3.55882480     1.02649378    -0.76573137     2.20551908
Ti      5.70967420    -0.93316677     3.56246279     2.42403156     0.44222657     0.94185072
Ti      1.88024324     2.73536324     3.62307279    -1.39630571     0.15755392    -0.23139346
Ti      1.92138222    -1.12512778     3.65712381    -2.07397728     0.33947907     0.23622148
O       3.47757699     4.69870398     0.80501502     1.61952537    -0.37736789    -0.43203497
O       3.65879300     0.89894202     1.09536002     0.87949604    -0.74579374    -1.10698965
O       0.12512602     4.91224599     0.73337299    -0.79451977    -1.56006730     0.38754149
O       0.13999501     1.03924099     0.64209299    -0.82712137     0.41235059     1.04115730
O      -1.41442776     4.78143422     4.18672181    -1.29562590     1.30822123    -2.53057657
O       5.74209525     1.11383223     4.12693082    -0.74242714    -0.87727538    -1.71895254
O       1.54315521     4.56822723     4.13636980     1.63980958     2.12453470     0.37160759
O       1.91533822     0.75407425     4.01868279     0.61833023     1.09561405     0.76822277
O       3.73866622     3.00337522     3.17116182     0.69480695    -0.20297993     1.17287445
O       3.85103124     6.30900522     3.21653279    -0.53264150     0.01656819     0.50387624
O      -0.03800980     2.86943220     3.19185980     1.33991857    -1.16016471    -0.49994965
O       0.00852621    -0.92880376     3.12432683     0.08274713     0.33882833     1.79123810
O       5.83721602     6.62554201     1.67224498    -2.83936078     0.19309918    -1.42790124
O       5.76868402     3.21050398     1.69969198    -1.59153119    -0.50647331    -1.87332214
O       1.80058502     6.57637202     1.78005601     3.43753458     0.10377413    -0.02496568
O       1.93130302     2.96047001     1.60283900    -1.29674022    -0.75125888     0.64885180
