# total energy = -4983.62199326 eV

CRYSTAL
PRIMVEC
        2.83118543     0.00000000     0.00000000
        1.50647904     4.17240930     0.00000000
       -0.00000979    -0.00005878     4.50768546
PRIMCOORD
6 1
Ti      2.16882734     2.08617521     2.25384273     0.00000000     0.00000000     0.00000000
Ti      0.00000000     0.00000000     0.00000000     0.00000000     0.00000000     0.00000000
O       1.70918136     0.81312966     0.87848152    -5.98265023     2.67089098     3.26745244
O       2.62847331     3.35922077     3.62920399     5.98265023    -2.67089098    -3.26745244
O       0.45964186     1.27302180     3.13232514     5.98009301    -2.66767093     3.26304582
O       1.04682747     2.89932861     1.37536036    -5.98009301     2.66767093    -3.26304582
