# total energy = -19958.11045143 eV

CRYSTAL
PRIMVEC
        5.93400000     0.00000000     0.00000000
        0.00000000     9.29699974     0.00000000
        0.00000000     0.00000000     4.64899994
PRIMCOORD
24 1
Ti      4.42262099     7.01591601     2.32223298     3.71908796     0.37175749    -1.04218188
Ti      4.50812100     2.59257302     2.42755502    -2.75188822    -3.28959299     0.03669197
Ti      1.56910903     6.75458299     2.20986399    -3.54625886     1.47479638     0.29645293
Ti      1.49957498     2.46103702     2.45879500     1.80681436    -3.69612800    -1.56352312
Ti      2.95425202     4.71247301     4.62283001     0.41681891     0.81199530     1.95027375
Ti      2.99531300     9.04468200     0.01230602    -0.88344860     1.98264703     0.28112195
Ti      5.91428402     4.56328201     4.59844701    -0.18608623     2.45980976     0.33381236
Ti      5.92161101     0.06439701     4.55568499     1.08362423    -0.13098490     2.75352807
O       4.54133799     5.70133802     0.79482000    -0.29449272    -1.75064062    -0.87406536
O       4.36360402     0.54750800     0.93482500     0.18081547     2.32628872     0.65812809
O       1.48908398     5.70787600     0.66787598    -0.36347545    -0.86549098     0.56239869
O       1.31867499     0.83902498     1.13059900     0.36873130     0.72408103    -0.92862496
O       4.43148301     8.29865601     3.74384199    -0.23302457    -0.53381958    -1.17015113
O       4.37301401     3.74123299     3.83578998     1.11999455     0.35455269    -0.11188160
O       1.38798499     8.25326599     4.00495202     0.86363413    -0.12378247    -2.36033426
O       1.57999701     3.83832903     3.70606101    -1.52036663    -0.04170537     0.82286490
O       2.99948101     5.92723198     3.17019099     0.12754219     0.78721294    -0.93445905
O       3.04544799     1.65595903     3.25584299    -0.82465156    -1.04096755     0.02094473
O       0.04892699     5.93068698     3.01375498    -0.29910271    -0.56030529     0.98333394
O       5.90649998     1.57054199     3.38538002    -0.52889977     0.94366617    -0.90716498
O       2.96742800     7.80441700     1.41616997    -0.30494657    -0.55590896     0.71743035
O       2.80648498     3.38655803     1.46461901     1.33752487     0.30590174    -0.68148760
O       0.00733403     7.81056800     1.31104902    -0.44809408    -0.78913613     2.24980712
O       5.84840198     3.30226898     1.44133098     1.16014800     0.83575385    -1.09291491
