# total energy = -19958.01056411 eV

CRYSTAL
PRIMVEC
        7.60600008     0.00000000     0.00000000
        0.00000000     7.60600008     0.00000000
       -1.89786986    -1.89786986     4.85670466
PRIMCOORD
24 1
Ti      3.64824798     6.56704199     1.39396803    -0.35691476     1.02758058    -1.47686149
Ti      3.82572598     2.94594499     1.32205400    -0.22803765    -1.12350745    -1.78056236
Ti     -0.10713098     6.59764098     1.06773501     0.51409150    -0.25436910     2.00229747
Ti      0.13643401     2.86638399     1.08430001    -0.17766895     0.24096491     1.59176027
Ti      5.74884120     2.87186721     3.50275784     1.84231206     0.76233931     1.58528443
Ti      5.74503721    -0.99759876     3.68265979     1.84837318    -0.59804756    -0.25688647
Ti      1.84292920     2.95236222     3.69594579    -0.97767365    -0.07855752     0.36417042
Ti      1.84029924    -0.93421878     3.71555980    -1.32958427    -0.21749664     0.24764283
O       3.71347802     4.78264699     0.71275498     0.55219500    -0.59175812     0.50651317
O       3.53211998     1.03132799     0.77495399     1.34373871    -0.51886552     1.83116015
O       0.07768999     4.75983998     0.67879900    -0.64489565    -0.46377190    -0.32241029
O       0.22786902     0.88449702     0.77352098    -1.13623724     0.76695393    -0.33595152
O      -1.33839478     4.77699422     4.12511484    -1.78519729    -0.88373374    -1.28153651
O       5.96784523     0.93961321     4.14762482    -1.28119275    -0.52379484    -3.26769875
O       1.49420621     4.80594021     4.29758281     0.98234355    -1.45454147    -1.20113011
O       1.69070322     0.94950322     4.08005883     1.82955398     0.84463418    -0.59882069
O       3.91434920     3.21267721     3.42873583    -1.74930159    -1.00992173    -1.78555159
O       3.85902822    -1.30580879     3.37987383    -0.45552200     1.02985370    -0.47443016
O       0.01458222     2.66162721     3.11524382     1.40510866     0.76295535    -0.45366258
O       0.03212122    -1.09892176     3.06522879    -2.16840853     1.42540058     0.37078355
O       5.61308702     6.63927299     1.43986902     0.09212780     0.26378346     1.02369693
O       5.74593501     3.11047101     1.50035901    -0.44255490    -1.07980176     0.84502371
O       1.76365803     6.30753601     1.74826399     3.17312969     0.97559337    -0.07537500
O       1.99573098     2.88720499     1.28651499    -0.84978488     0.69810825     2.94254433
