# total energy = -19517.41282693 eV

CRYSTAL
PRIMVEC
        5.93400000     0.00000000     0.00000000
        0.00000000     9.29699974     0.00000000
        0.00000000     0.00000000     4.64899994
PRIMCOORD
23 1
Ti      4.43121599     7.03704199     2.32689000     0.59821005    -0.36704337    -0.52305488
Ti      4.52169699     2.30320202     2.37611201    -1.60592243     0.46606353    -0.67272579
Ti      1.25302399     7.06086502     2.05375702     0.73585720     0.65124576     2.11930893
Ti      1.50145202     2.23358298     2.32043700     1.17900627     0.58755951    -0.63015062
Ti      2.97803700     4.58699101     0.15232103     0.40086239    -0.47962096     1.58331548
Ti      3.01393998     9.11314103     4.62014899    -1.03480770     1.16939343    -0.55680859
Ti      5.92518100     4.66594499     4.61542201    -0.19264975    -0.03188786    -0.24269552
Ti      0.01556998     0.09843200     4.62583098     0.36135737    -0.25797970     0.20351909
O       4.49222499     5.54785402     0.95313898    -0.01835511     1.16314333     0.69135756
O       4.38973802     0.89007301     0.93199401     0.77178401     0.21837261    -0.25438118
O       1.45288498     5.64438801     0.97870502     0.95982119    -0.71389765    -1.10640524
O       1.51927598     0.87785600     0.85896998    -0.44148814     0.17641245     0.59596522
O       4.47364002     8.28159999     3.76602500     0.18878281    -0.19501619     0.09054143
O       4.35219400     3.76717501     3.77572402     1.06404655    -0.00495375    -0.55329004
O       1.49064199     8.37166601     3.50426102     0.00179206     0.73367973     2.28778413
O       1.68352302     3.82062000     3.91118599    -2.20279525    -1.13830698    -2.25065918
O       3.03542601     1.33298299     3.27302903    -0.04896899     0.75128536    -0.80508006
O       0.17351701     6.00309600     3.32711898    -0.57771450     0.87931915    -1.13991701
O       0.00270198     1.47056601     3.29810298     0.14179716     0.11373819    -0.10825248
O       2.94016003     7.92391099     1.49859499     0.33470582    -1.32439990    -0.01744854
O       2.91353299     3.33576601     1.47388601     0.58242476    -1.18066464     1.04002524
O       5.77993301     7.96843401     1.43317599    -0.68396743     0.31578841    -0.88913485
O       0.14557402     3.34096702     1.41290903    -0.51377834    -1.53223099     1.13818691
