# total energy = -19933.99652093 eV

CRYSTAL
PRIMVEC
        4.68141279     0.00000000     0.00000000
        0.98664597     4.88377175     0.00000000
        0.00000000     0.00000000     8.42132617
PRIMCOORD
24 1
Ti      2.28147238     2.89411862     3.12425205     2.75159202    -0.42764712     0.11125707
Ti      3.38658615     1.98965325     5.29707445    -2.75159202     0.42764712    -0.11125707
Ti      4.43937678     1.98965500     1.08637755    -4.40815672    -0.25478356     2.60762922
Ti      1.22868177     2.89411706     7.33494905     4.40815672     0.25478356    -2.60762922
Ti      1.78814951     0.45223292     1.08641132     2.75147093    -0.42744220    -0.11165868
Ti      3.87990903     4.43153909     7.33491528    -2.75147093     0.42744220     0.11165868
Ti      0.73535882     0.45223103     5.29704069     4.40803948     0.25453391     2.60844143
Ti      4.93269972     4.43154097     3.12428582    -4.40803948    -0.25453391    -2.60844143
O       1.82911144     1.71965908     4.29733842    -2.67839243    -1.78642114    -0.78719083
O       3.83894709     3.16411279     4.12398809     2.67839243     1.78642114     0.78719083
O       1.20645582     1.71967875     0.08670228     2.28728405    -1.69160062    -0.69474447
O       4.46160276     3.16409316     8.33462399    -2.28728405     1.69160062     0.69474447
O       3.34562421     0.72222695     0.08667495     2.67732285     1.78550634    -0.78736747
O       2.32243432     4.16154491     8.33465132    -2.67732285    -1.78550634     0.78736747
O       3.96827988     0.72220733     4.29736575    -2.28793916     1.69181273    -0.69527078
O       1.69977861     4.16156459     4.12396076     2.28793916    -1.69181273     0.69527078
O       0.77022051     2.97058677     2.27481038    -1.18186791    -2.01228646    -2.85117371
O       4.89783802     1.91318510     6.14651613     1.18186791     2.01228646     2.85117371
O       2.89730489     1.91313948     1.93587967     0.70233643    -2.93930037    -2.31835995
O       2.77075364     2.97063238     6.48544670    -0.70233643     2.93930037     2.31835995
O       0.27689763     0.52870093     1.93585276    -1.18247804    -2.01297963     2.84938166
O       5.39116091     4.35507098     6.48547361     1.18247804     2.01297963    -2.84938166
O       2.27743075     0.52874650     6.14654299    -0.70345486     2.93999071    -2.31682012
O       3.39062778     4.35502537     2.27478347     0.70345486    -2.93999071     2.31682012
