# total energy = -4980.94707261 eV

CRYSTAL
PRIMVEC
        2.81377748     0.00000000     0.00000000
        1.69567986     4.06963138     0.00000000
       -0.00001081    -0.00005858     4.50328332
PRIMCOORD
6 1
Ti      2.25472319     2.03478627     2.25164161     0.00000000     0.00000000     0.00000000
Ti      0.00000000     0.00000000     0.00000000     0.00000000     0.00000000     0.00000000
O       1.73734959     0.79309970     0.87762357    -7.92633655     3.41590696     4.45973718
O       2.77209678     3.27647283     3.62565960     7.92633655    -3.41590696    -4.45973718
O       0.51736896     1.24166292     3.12926617     7.92366414    -3.41372744     4.45596897
O       1.17830007     2.82790978     1.37401705    -7.92366414     3.41372744    -4.45596897
