# total energy = -39481.07822024 eV

CRYSTAL
PRIMVEC
        5.93188753     0.00000000     0.00000000
        0.00000000     9.29428401    -0.00002646
        0.00000000    -0.00002646     9.29428401
PRIMCOORD
47 1
Ti      4.44891576     6.97679325     6.94214005     0.00000000     0.04308142    -0.02615379
Ti      4.44891576     7.04677732     2.39962209     0.00000000    -0.03292427    -0.03292427
Ti      4.44891576     2.36218057     7.00933581     0.00000000     0.17225421     0.17225421
Ti      4.44891576     2.29501128     2.32966447     0.00000000    -0.02615379     0.04308142
Ti      1.48297199     6.93815297     6.98435001     0.00000000     0.02165384    -0.02974922
Ti      1.48297199     6.99318477     2.34602953     0.00000000     0.04526609     0.04526609
Ti      1.48297199     2.13855765     6.78571288     0.00000000    -0.05160952    -0.05160952
Ti      1.48297199     2.33722124     2.29102420     0.00000000    -0.02974922     0.02165384
Ti      2.96265002     4.64926313     4.64193809     0.01052559     0.02982815    -0.02363462
Ti      3.09259125     4.74923300     0.10207777     0.03474024     0.05786553     0.05786553
Ti      2.99556788    -0.02060118     4.62655405     0.04824111     0.04308116     0.04308116
Ti      2.96265002    -0.00519069     0.00213435     0.01052559    -0.02363462     0.02982815
Ti      0.00329375     4.64926313     4.64193809    -0.01052559     0.02982815    -0.02363462
Ti     -0.12664749     4.74923300     0.10207777    -0.03474024     0.05786553     0.05786553
Ti     -0.02962411    -0.02060118     4.62655405    -0.04824111     0.04308116     0.04308116
Ti      0.00329375    -0.00519069     0.00213435    -0.01052559    -0.02363462     0.02982815
O       4.44891576     5.55794392     5.54981001     0.00000000    -0.04263353    -0.02755967
O       4.44891576     5.62186504     0.97470981     0.00000000    -0.05670930    -0.05670930
O       4.44891576     0.92721138     5.57436661     0.00000000    -0.04312256    -0.04312256
O       4.44891576     0.90268124     0.91081514     0.00000000    -0.02755967    -0.04263353
O       1.48297199     5.56551165     5.54221820     0.00000000     0.02094576    -0.07879663
O       1.48297199     5.44449379     0.79733856     0.00000000     0.02998859     0.02998859
O       1.48297199     0.86677178     5.51392701     0.00000000     0.17125945     0.17125945
O       1.48297199     0.89508943     0.91838288     0.00000000    -0.07879663     0.02094576
O       4.44891576     8.38538193     8.37377873     0.00000000     0.01076110    -0.02840890
O       4.44891576     8.38039002     3.73323479     0.00000000     0.07297668     0.07297668
O       4.44891576     3.75423888     8.40139411     0.00000000    -0.01126786    -0.01126786
O       4.44891576     3.72664995     3.73825316     0.00000000    -0.02840890     0.01076110
O       1.48297199     8.38450028     8.37806930     0.00000000     0.01116682    -0.05538930
O       1.48297199     8.36040408     3.71324884     0.00000000    -0.02716449    -0.02716449
O       1.48297199     3.73094052     3.73737151     0.00000000    -0.05538930     0.01116682
O       2.94182046     5.99687222     7.87894585     0.00802699    -0.00476786    -0.01154606
O       2.96711509     6.05259276     3.21694963    -0.02928230    -0.03241545     0.01196566
O       2.91930761     1.48819731     7.91998753     0.00535998    -0.03222262    -0.02628465
O       2.97208908     1.41543405     3.22846316     0.02452422    -0.03380950    -0.02199220
O       0.02412330     5.99687222     7.87894585    -0.00802699    -0.00476786    -0.01154606
O      -0.00117132     6.05259276     3.21694963     0.02928230    -0.03241545     0.01196566
O       0.04663615     1.48819731     7.91998753    -0.00535998    -0.03222262    -0.02628465
O      -0.00614532     1.41543405     3.22846316    -0.02452422    -0.03380950    -0.02199220
O       2.97208908     7.87559193     6.06256282     0.02452422    -0.02199220    -0.03380950
O       2.96711509     7.86410486     1.40543753    -0.02928230     0.01196566    -0.03241545
O       2.91930761     3.27283230     6.13535254     0.00535998    -0.02628465    -0.03222262
O       2.94182046     3.23181707     1.34974344     0.00802699    -0.01154606    -0.00476786
O      -0.00614532     7.87559193     6.06256282    -0.02452422    -0.02199220    -0.03380950
O      -0.00117132     7.86410486     1.40543753     0.02928230     0.01196566    -0.03241545
O       0.04663615     3.27283230     6.13535254    -0.00535998    -0.02628465    -0.03222262
O       0.02412330     3.23181707     1.34974344    -0.00802699    -0.01154606    -0.00476786
