# total energy = -4988.87550008 eV

CRYSTAL
PRIMVEC
        2.90706957     0.00000000     0.00000000
        0.90196867     4.46474538     0.00000000
       -0.00000601    -0.00005964     4.57811799
PRIMCOORD
6 1
Ti      1.90451607     2.23234287     2.28905910     0.00000000     0.00000000     0.00000000
Ti      0.00000000     0.00000000     0.00000000     0.00000000     0.00000000     0.00000000
O       1.62931398     0.87010154     0.89220782    -1.81572324     0.83349076     0.85200194
O       2.17971816     3.59458421     3.68591037     1.81572324    -0.83349076    -0.85200194
O       0.27519963     1.36221718     3.18126774     1.81557797    -0.83319457     0.85157514
O       0.62676303     3.10246845     1.39685045    -1.81557797     0.83319457    -0.85157514
