# total energy = -19911.36077578 eV

CRYSTAL
PRIMVEC
        6.51864840     0.00000000     0.00000000
        2.66842022     6.40412230     0.00000000
        0.00000000     0.00000000    11.91705415
PRIMCOORD
24 1
Ti      3.94399992     3.79507707     4.42114209    -0.17423704    -2.16780638     0.53364474
Ti      5.24306880     2.60904542     7.49591219     0.17423704     2.16780638    -0.53364474
Ti      6.70903102     2.60904759     1.53733741    -0.24429217    -1.14123598     0.19953773
Ti      2.47803776     3.79507515    10.37971694     0.24429217     1.14123598    -0.19953773
Ti      2.60978994     0.59301589     1.53738518    -0.17423704    -2.16780638    -0.53364474
Ti      6.57727883     5.81110679    10.37966916     0.17423704     2.16780638     0.53364474
Ti      1.14382762     0.59301353     7.49586435     0.24429217     1.14123598     0.19953773
Ti      8.04324115     5.81110914     4.42118986    -0.24429217    -1.14123598    -0.19953773
O       3.00278948     2.25500040     6.08118153     1.82498513     2.07978386    -0.80462292
O       6.18427918     4.14912210     5.83587275    -1.82498513    -2.07978386     0.80462292
O       2.13577587     2.25502627     0.12269276    -0.22717685    -0.75002090     1.56717229
O       7.05129295     4.14909632    11.79436113     0.22717685     0.75002090    -1.56717229
O       4.85006917     0.94706079     0.12265407    -1.82498513    -2.07978386    -0.80462292
O       4.33699956     5.45706169    11.79439982     1.82498513     2.07978386     0.80462292
O       5.71708286     0.94703497     6.08122016     0.22717685     0.75002090     1.56717229
O       3.46998575     5.45708761     5.83583406    -0.22717685    -0.75002090    -1.56717229
O       1.85992205     3.89535040     3.21909365     0.62538431     2.68651275     2.55764361
O       7.32714662     2.50877209     8.69796063    -0.62538431    -2.68651275    -2.55764361
O       4.54148565     2.50871250     2.73947139     0.64507640     2.07865772     1.54320703
O       4.64558302     3.89541000     9.17758269    -0.64507640    -2.07865772    -1.54320703
O       0.52571202     0.69328903     2.73943329     0.62538431     2.68651275    -2.55764361
O       8.66135670     5.71083345     9.17762072    -0.62538431    -2.68651275     2.55764361
O       3.31137301     0.69334870     8.69799860    -0.64507640    -2.07865772     1.54320703
O       5.87569566     5.71077380     3.21905562     0.64507640     2.07865772    -1.54320703
