# total energy = -19516.84504523 eV

CRYSTAL
PRIMVEC
        5.93400000     0.00000000     0.00000000
        0.00000000     9.29699974     0.00000000
        0.00000000     0.00000000     4.64899994
PRIMCOORD
23 1
Ti      4.37139202     6.98827402     2.26061600     0.28511771     0.11525977    -1.47144417
Ti      4.51487701     2.40170101     2.34437000    -0.20644346    -0.87237280    -0.21820035
Ti      1.40049299     6.95786802     2.34108799    -0.25386362     0.30463290    -0.88655321
Ti      1.45054401     2.26992698     2.30599999     0.05475809    -0.13315902     0.19210159
Ti      2.94452600     4.50575801     0.01204000    -0.06168619     1.10506775     1.49169830
Ti      2.92712702     0.11020100     0.00228102     0.04509717     0.04848665     0.15660647
Ti      5.92678800     4.66708997     4.57606000    -0.48664290     0.58683369     1.79978008
Ti      5.87941902     9.23232000     4.58296598     0.99175045     0.21484583     0.46233594
O       4.36287402     5.60816297     0.98671501     0.04457497    -0.66337340    -0.57740082
O       4.68545999     0.95011902     0.85661499    -1.61455877    -0.18182771     0.91401543
O       1.45090099     5.58987202     1.08725901     0.81869714    -0.86985209    -1.30473841
O       1.50132698     1.02458701     0.83442801     0.59917319    -0.11088606     1.14613445
O       4.70279002     8.25160199     3.65493699    -1.57681727     0.31805946     0.65766581
O       4.38701302     3.73070602     3.85438199     0.90017877     0.22114966    -1.03804883
O       1.63864398     8.57954102     3.61989302    -0.26869735    -1.07047611     0.18768829
O       1.44589899     3.72223098     3.88463198     0.43626109    -0.64328408    -0.93085873
O       3.10115802     1.51882301     3.35357002    -0.75670885    -0.25702325    -0.85842070
O       0.12554101     5.88833402     3.27898799    -0.44540214     1.27850132    -0.12484665
O       5.83727402     1.39571902     3.32013400     1.38054124     0.93978278    -1.50997191
O       2.96562800     7.89275002     1.37154599     0.41518395    -0.22326671     0.71441907
O       3.08417699     3.28955200     1.34933499    -1.06855061    -1.28764622     1.78654224
O       5.93266801     7.68859100     1.41455403     0.20641261     1.54943861    -0.56664152
O       0.03317100     3.34483102     1.57919202     0.56162427    -0.36889045    -0.02186287
