# total energy = -19517.04333086 eV

CRYSTAL
PRIMVEC
        5.93400000     0.00000000     0.00000000
        0.00000000     9.29699974     0.00000000
        0.00000000     0.00000000     4.64899994
PRIMCOORD
23 1
Ti      4.50127101     7.03894798     2.28582098    -0.58430501     0.38382085     0.00079961
Ti      4.51886399     2.25376300     2.36569801     0.40741819     0.20177408    -0.05555925
Ti      1.48109701     7.10546000     2.30338400    -0.95054233     0.36883054    -0.46904138
Ti      1.52777399     2.24157800     2.24438402    -0.69888960     1.23271844     1.44773910
Ti      3.02873303     4.33586000     0.11146500     1.20481887     0.18034804    -0.61898277
Ti      2.86742800     9.25497598     4.53488398     1.63294628    -0.53945415    -0.18949912
Ti      0.12592498     4.68259598     0.06148902    -1.19912979    -0.53028457    -0.13771348
Ti      5.87684701     0.16974202     0.07990698    -1.92181959    -1.03626449    -0.96503410
O       4.33595800     5.48422702     0.80041298    -0.02071333     0.62304615     0.29587880
O       4.39851299     0.96551802     0.87946899     0.02413264    -0.17157955     0.03170146
O       1.41676900     5.61909699     0.96573599     1.12272403    -0.26465557    -0.16174687
O       1.36948802     1.02049901     0.87628001     1.25725037    -0.41851276     0.09496270
O       4.49553902     8.38030102     3.82655197    -1.02659174     0.15582228    -1.24886934
O       4.50687802     3.59027698     3.64138502    -1.49095757     2.13995335     2.46749299
O       1.34277902     8.52628801     3.67895402     0.59598296    -1.11784176    -0.50700348
O       1.49925101     3.64139899     3.77313698     0.05930046     1.15006413     0.31066368
O       2.97524702     1.38740401     3.24482499    -0.58703552    -0.08076301    -0.37510172
O       5.75040100     6.18429603     3.21523202     1.71413017    -1.62134854     0.88832213
O       0.02375302     1.51072199     3.23052302     0.77051234    -1.51700979     0.58181155
O       2.94882102     7.94494499     1.27188498    -0.96327161    -0.79313265     1.60103502
O       3.05971101     3.12454300     1.46269100    -1.22666580     0.92030101    -0.80399120
O       5.85776202     7.82841799     1.39174400     0.88823420     1.43613545    -0.89858726
O       5.87097600     3.41771799     1.55723402     0.99247216    -0.70196722    -1.28927656
