# total energy = -19959.41425282 eV

CRYSTAL
PRIMVEC
        7.60600008     0.00000000     0.00000000
        0.00000000     7.60600008     0.00000000
       -1.89786986    -1.89786986     4.85670466
PRIMCOORD
24 1
Ti      3.91449901     6.69246399     1.21206700    -1.23782311    -0.55645841    -0.60548011
Ti      3.73397300     2.89619900     1.15964299     0.03162792     0.53772509     0.46175256
Ti      0.05216301     6.28665499     1.38506599     1.00735011     1.92033427     0.33966394
Ti     -0.06912399     2.81640102     1.10811298     1.83262105    -1.31200949    -1.06298572
Ti      5.78908222     2.92822422     3.48726379    -1.28967174    -0.71141165     1.18469767
Ti      5.54582224    -1.07725380     3.70791684     0.54185916     0.44688386     0.63620043
Ti      1.83935323     3.03324225     3.55272381     1.41519381    -0.09109576     1.20634585
Ti      1.83859624    -0.78953780     3.68013784    -0.90335229    -0.50553460    -0.61491992
O       3.58172198     4.74540800     0.77552201     1.08641850     0.84838080    -0.44698979
O       3.95339200     0.94655998     0.79228100    -0.71127898     1.17005626     0.63674190
O       0.36669602     4.62956300     0.96835097    -0.64212965    -0.28048766    -1.56970097
O      -0.11034700     0.94328401     0.66742200     0.33724221     0.47692927     1.65607619
O       5.51574121     4.62340020     4.36440784     0.09604745    -0.67323976    -2.75210393
O       5.79276625     0.93703321     4.01713183    -0.26285143     1.21248128    -0.56379171
O       2.10417025     4.87284123     4.12723181    -0.70340883    -2.44362337     0.10243896
O       1.98081623     1.06103325     3.95758182    -0.84682374    -0.12963456     0.36811577
O       3.82511023     2.81883222     3.08635879     1.14350961     0.33028943     0.49025633
O       3.58982220    -1.00253879     3.40507679     4.55787211     0.35972523    -1.64264319
O       0.01866821     3.17246524     3.09710082    -0.44334268    -0.66249665     1.01749311
O      -0.06058376    -1.20529575     3.36251179     0.19828021     0.33859024    -0.11390377
O       5.78392697     6.50679199     1.65375199    -2.51713844    -0.14643286     0.77586255
O       5.80631599     2.99109900     1.53922099    -2.08337569     0.13107746     0.46629467
O       1.92801402     6.59840702     1.59302699    -0.14365144     1.09751076     0.82224501
O       1.94154599     2.95395102     1.66227200    -0.46317412    -1.35755917    -0.79166558
