# total energy = -19940.22095635 eV

CRYSTAL
PRIMVEC
        5.89411903     0.00000000     0.00000000
        1.54418408     6.08009808     0.00000000
        0.00000000     0.00000000    10.63386238
PRIMCOORD
24 1
Ti      3.05141678     3.60306067     3.94508730     0.11131904    -2.03377498     0.87948396
Ti      4.38688650     2.47703781     6.68877568    -0.11131904     2.03377498    -0.87948396
Ti      5.71239962     2.47703991     1.37180173    -0.49390087    -0.52906406     0.02492505
Ti      1.72590369     3.60305881     9.26206136     0.49390087     0.52906406    -0.02492505
Ti      2.27932487     0.56301168     1.37184437     0.11131904    -2.03377498    -0.87948396
Ti      5.15897844     5.51708705     9.26201873    -0.11131904     2.03377498     0.87948396
Ti      0.95381166     0.56300934     6.68873304     0.49390087     0.52906406     0.02492505
Ti      6.48449164     5.51708932     3.94512993    -0.49390087    -0.52906406    -0.02492505
O       2.40925936     2.14090603     5.42637883     1.65018810     1.92765523    -0.65758533
O       5.02904386     3.93919246     5.20748415    -1.65018810    -1.92765523     0.65758533
O       1.62530783     2.14093057     0.10948160    -0.58119834    -0.01756193     0.93729935
O       5.81299553     3.93916803    10.52438108     0.58119834     0.01756193    -0.93729935
O       4.25695192     0.89914329     0.10944710    -1.65018810    -1.92765523    -0.65758533
O       3.18135135     5.18095520    10.52441558     1.65018810     1.92765523     0.65758533
O       5.04090359     0.89911880     5.42641333     0.58119834     0.01756193     0.93729935
O       2.39739964     5.18097976     5.20744965    -0.58119834    -0.01756193    -0.93729935
O       1.15340727     3.69826046     2.87247169     0.40587192     1.40612810     1.45144407
O       6.28489595     2.38183804     7.76139129    -0.40587192    -1.40612810    -1.45144407
O       3.76612767     2.38178134     2.44449365     0.83106621     1.36670022     0.53073760
O       3.67217561     3.69831721     8.18936915    -0.83106621    -1.36670022    -0.53073760
O       0.38131533     0.65821128     2.44445968     0.40587192     1.40612810    -1.45144407
O       7.05698795     5.42188726     8.18940312    -0.40587192    -1.40612810     1.45144407
O       2.90008367     0.65826797     7.76142519    -0.83106621    -1.36670022     0.53073760
O       4.53821961     5.42183051     2.87243772     0.83106621     1.36670022    -0.53073760
