# total energy = -19961.00760591 eV

CRYSTAL
PRIMVEC
        7.60600008     0.00000000     0.00000000
        0.00000000     7.60600008     0.00000000
       -1.89786986    -1.89786986     4.85670466
PRIMCOORD
24 1
Ti      3.82249297     6.65415600     1.12816801    -1.08438964     0.29791795     0.50722793
Ti      3.78598900     2.89767101     1.20340400    -0.31294348    -0.36630829     0.85150623
Ti      0.00124097     6.68600702     1.19953698     0.93066358    -0.57526552     0.38418569
Ti     -0.06835499     2.75625400     1.23116903    -0.00032113     0.98820747    -0.07537655
Ti      5.76587023     2.76346922     3.78905680    -1.49098816     0.64197487    -0.68255718
Ti      5.76100122    -1.00675977     3.60228983    -1.09336408    -0.18263221    -0.49207179
Ti      1.80236422     2.77721624     3.59330181     2.31731094     0.83120171     0.26615916
Ti      1.90547023    -0.90822078     3.69386184     0.86114170    -0.40993684    -0.96403497
O       3.80451698     4.75855900     0.74707302     0.09614644     0.85820730    -0.78181157
O       3.69088400     1.04838602     0.84312398     0.56931470    -0.90256862    -0.65019906
O       0.04896202     4.76609899     0.95517002    -0.51673099    -0.28601759    -1.52463054
O      -0.09503399     0.94889800     0.70687402     0.32145178     0.30233099     0.60627561
O       5.86345623     4.70788922     4.05208981     0.06363328     0.06496100     0.07331760
O       5.77553221     0.92196023     4.02247281    -0.51984666     0.33476881     0.87149374
O       1.74151820     4.82272921     4.06893579     0.20243203    -0.86371203     0.19018354
O       1.93703221     0.92418722     3.95513781     0.07611008     1.35453350     0.56901337
O       3.69803922     2.80117125     3.15105780     1.20621138     0.17909951     0.78784441
O       3.88157524    -1.04240679     3.34720782    -0.17366908     0.06785504    -0.70420048
O      -0.03007076     2.63093821     3.28619183    -0.11967487     0.32153405    -1.22237694
O       0.07498823    -0.77102480     3.14418881    -1.37429037    -0.53310404     0.13204368
O       5.68173798     6.66309100     1.56288098     0.57433915     0.09923819     0.36729019
O       5.66376998     2.92880002     1.61102500     1.63774961    -0.20964680     0.55734158
O       1.94878402     6.85093903     1.65276200     0.11263596    -0.78724560    -0.08954101
O       1.93802500     3.13106998     1.52068502    -2.28292191    -1.22539285     1.02291789
