# total energy = -19910.59420272 eV

CRYSTAL
PRIMVEC
        6.52533740     0.00000000     0.00000000
        2.97465821     6.27562663     0.00000000
        0.00000000     0.00000000    12.00163759
PRIMCOORD
24 1
Ti      4.12790059     3.71893050     4.45252192    -0.03776129    -2.28074367     0.45844432
Ti      5.37209480     2.55669605     7.54911574     0.03776129     2.28074367    -0.45844432
Ti      6.83956138     2.55669818     1.54824897    -0.50177411    -1.28492291     0.38986089
Ti      2.66043413     3.71892861    10.45338887     0.50177411     1.28492291    -0.38986089
Ti      2.64057164     0.58111728     1.54829707    -0.03776129    -2.28074367    -0.45844432
Ti      6.85942379     5.69450946    10.45334077     0.03776129     2.28074367     0.45844432
Ti      1.17310502     0.58111497     7.54906764     0.50177411     1.28492291     0.38986089
Ti      8.32689048     5.69451176     4.45257008    -0.50177411    -1.28492291    -0.38986089
O       3.11273814     2.20975479     6.12434380     1.80808835     2.04984387    -0.87047892
O       6.38725725     4.06587176     5.87729392    -1.80808835    -2.04984387     0.87047892
O       2.24483607     2.20978014     0.12356360     0.02689889    -1.04692583     1.73784398
O       7.25515942     4.06584652    11.87807379    -0.02689889     1.04692583    -1.73784398
O       4.89992827     0.92805841     0.12352462    -1.80808835    -2.04984387    -0.87047892
O       4.60006714     5.34756820    11.87811271     1.80808835     2.04984387     0.87047892
O       5.76783043     0.92803311     6.12438272    -0.02689889     1.04692583     1.73784398
O       3.73216492     5.34759352     5.87725493     0.02689889    -1.04692583    -1.73784398
O       2.04643630     3.81719190     3.24194174     0.65508570     2.99456831     2.80776139
O       7.45355903     2.45843466     8.75969598    -0.65508570    -2.99456831    -2.80776139
O       4.66503688     2.45837626     2.75891526     0.61741620     2.13645922     1.77972213
O       4.83495852     3.81725029     9.24272219    -0.61741620    -2.13645922    -1.77972213
O       0.55910731     0.67937849     2.75887693     0.65508570     2.99456831    -2.80776139
O       8.94088802     5.59624807     9.24276053    -0.65508570    -2.99456831     2.80776139
O       3.34762952     0.67943688     8.75973419    -0.61741620    -2.13645922     1.77972213
O       6.15236587     5.59618967     3.24190340     0.61741620     2.13645922    -1.77972213
