# total energy = -19957.99063625 eV

CRYSTAL
PRIMVEC
        5.83566073     0.00000000     0.00000000
        0.00002714     5.08165198     0.00000000
        0.00000000     0.00000000     9.59095481
PRIMCOORD
24 1
Ti      2.11516241     3.01138216     3.55817595     0.00715975     0.30632083    -0.64853402
Ti      3.72052552     2.07026961     6.03277924    -0.00715975    -0.30632083     0.64853402
Ti      5.03289166     2.07027125     1.23726332     0.00797916    -0.30701246     0.64908218
Ti      0.80279626     3.01138068     8.35369197    -0.00797916     0.30701246    -0.64908218
Ti      2.11514905     0.47055627     1.23730178     0.00662111     0.30147584     0.64830287
Ti      3.72053887     4.61109566     8.35365352    -0.00662111    -0.30147584    -0.64830287
Ti      0.80278291     0.47055441     6.03274078    -0.00896107     0.30031062     0.64943647
Ti      5.03290501     4.61109746     3.55821441     0.00896107    -0.30031062    -0.64943647
O       1.84703304     1.78933597     4.89419097     0.69929121     0.05391605     0.28906461
O       3.98865488     3.29231579     4.69676422    -0.69929121    -0.05391605    -0.28906461
O       1.07085054     1.78935651     0.09874427    -0.69915366     0.05393302     0.28811047
O       4.76483744     3.29229531     9.49221065     0.69915366    -0.05393302    -0.28811047
O       3.98864153     0.75148975     0.09871313    -0.69924107    -0.05416057     0.28843700
O       1.84704639     4.33016202     9.49224178     0.69924107     0.05416057    -0.28843700
O       4.76482403     0.75146927     4.89422211     0.69915160    -0.05390731     0.28861158
O       1.07086378     4.33018255     4.69673308    -0.69915160     0.05390731    -0.28861158
O       0.21203945     3.09094882     2.59075626     0.03216040    -0.15574103     0.28791352
O       5.62364847     1.99070294     7.00019893    -0.03216040     0.15574103    -0.28791352
O       3.12987566     1.99065572     2.20475184     0.03267359     0.15581482    -0.28874733
O       2.70581226     3.09099605     7.38620318    -0.03267359    -0.15581482     0.28874733
O       0.21202605     0.55012278     2.20472120     0.03203853    -0.15584285    -0.28861466
O       5.62366187     4.53152899     7.38623383    -0.03203853     0.15584285     0.28861466
O       2.70579886     0.55017000     7.00022952    -0.03246430    -0.15595238    -0.28845860
O       3.12988906     4.53148176     2.59072562     0.03246430     0.15595238     0.28845860
