# total energy = -19960.13593374 eV

CRYSTAL
PRIMVEC
        7.60600008     0.00000000     0.00000000
        0.00000000     7.60600008     0.00000000
       -1.89786986    -1.89786986     4.85670466
PRIMCOORD
24 1
Ti      3.75250002     6.58552399     1.26030299     0.54969640    -1.86639482     0.17732057
Ti      3.74849701     2.74422199     1.17066999     0.92124794     1.50269980     1.71542730
Ti      0.08120098     6.72757500     1.31786900    -0.35472392     0.17606175    -0.84984170
Ti      0.02936902     2.95210102     1.08535598    -1.16752527     0.23204317     0.19889367
Ti      5.70467321     3.10111521     3.62964179    -0.86567353    -0.65083541    -1.04216697
Ti      5.74675323    -0.87034179     3.63827484    -1.01745172     0.23618445    -0.50951005
Ti      1.74940024     2.74998520     3.64510583     1.15632605     0.54232993     0.33892732
Ti      1.85973624    -1.07671176     3.75830081     1.50707607    -0.52273092    -1.70654876
O       3.74289699     4.59182298     0.69438401    -0.68722219     1.08981519     0.90035412
O       3.75450100     0.81751598     0.76654002    -0.13171072     0.73746079     1.71607779
O       0.23431101     4.91224801     0.75304701    -1.05907841    -1.55887765    -0.60107812
O       0.18912102     0.98364600     0.81129699    -1.08807661     0.81891723    -0.68251039
O       5.97034220     4.94870324     4.04631781    -0.36907608    -1.55638548     0.18955182
O       5.77368321     1.08773421     3.81535781    -0.64485374    -1.08023885     1.91481951
O       1.77483520     4.66749522     4.11928479    -0.26990217    -0.40292981    -0.09028355
O       1.99609823     0.88001325     4.11567680    -0.17087327    -0.89554410    -1.14299745
O       3.78270223     2.87991224     3.16877481    -0.28995498     0.12687730     0.15754672
O       3.76178121     6.24693622     3.24583582     1.11303149     1.62541474     0.01593005
O      -0.06382079     2.89432222     3.13344683    -0.09813364     0.00597627     0.06411485
O       0.05809123    -0.80706378     3.26305181    -1.04126863     0.09645986    -0.56950650
O       5.67656300     6.52672303     1.49769597     0.79159102     0.61183588     1.28192757
O       5.64356202     3.06062601     1.58380899     0.83043732    -0.66176775    -0.22556245
O       1.90923601     6.39832901     1.73001399     0.02083700     1.08152286    -0.19010667
O       1.73080199     2.72967898     1.68867202     2.36528080     0.31210556    -1.06077842
