# total energy = -19517.46741299 eV

CRYSTAL
PRIMVEC
        5.17600016     0.00000000     0.00000000
        0.00000000     5.50899976     0.00000000
        0.00000000     0.00000000     9.26300011
PRIMCOORD
23 1
Ti      1.88492698     3.20066700     3.46889298    -0.02777075    -0.60307124     1.74922189
Ti      3.40095699     2.20770399     5.91113103     0.20783983     1.84171145    -3.11945069
Ti      4.36446203     2.16074602     1.41519602    -0.09607702    -0.21694257    -0.36052202
Ti      0.80228700     3.30190999     7.81600598    -1.20565088     1.34932315     0.10315964
Ti      2.08383598     0.22173998     1.26950099    -0.61458799     0.27866809    -0.72574633
Ti      3.16760898     5.22462001     7.83677100     0.86729924    -1.63382456     1.99131268
Ti      0.86967598     0.50986397     5.94899699    -1.71588264    -0.81914117    -2.66286836
Ti      4.51915498     4.92516702     3.42685598     0.51376214    -0.00987201     2.07971033
O       1.68255098     2.01201297     4.94892099    -0.44942463    -1.12079391    -1.23952364
O       3.55688298     3.49716999     4.43925297     0.66018626     0.36985204     0.26772547
O       4.73079201     3.12459798     9.16667900    -0.16145454    -0.59970104     0.91464766
O       3.53303799     0.87342901     0.11753498    -1.25690841    -1.06948444    -0.08455822
O       1.68271603     4.55638101     9.05422899     1.45679582     0.71327519     0.49267111
O       4.27879500     0.72821600     4.84043998    -0.04832853    -0.42772400    -0.75305300
O       1.01046200     4.60596302     4.52771199    -0.48053679     1.16212646     0.15528775
O       0.19408100     3.37141202     2.55768399     0.11454809    -0.37797519    -0.79424800
O       5.02760002     1.94156398     6.77104099     0.49724125     0.62431602     1.48997335
O       2.66990000     1.78526502     2.27334298     0.29186094     1.06437771     0.02644792
O       2.42286302     3.71516800     6.84440898     0.69350777    -0.16797332     0.30577627
O       0.25180201     0.69058801     1.84425299     0.51889406    -0.56220971     0.59276240
O       4.94684598     4.79321800     7.29467601     0.35236571     0.38976113    -1.18247521
O       2.35392000     1.08999501     7.00436497    -0.59791798    -0.24990592     1.31184340
O       2.84751601     4.55816699     2.39981798     0.48023931     0.06520834    -0.55809440
