# total energy = -4980.28016129 eV

CRYSTAL
PRIMVEC
        4.65885656     0.00000000     0.00000000
       -0.00001037     4.65885656     0.00000000
       -2.32946482    -2.32947000     5.94573711
PRIMCOORD
6 1
Ti     -0.00020516     3.49431888     1.48643412    -0.00077185     0.00077185     0.00000000
Ti      2.32958640    -1.16493245     4.45930261     0.00077185    -0.00077185     0.00000000
O       0.00004654     1.16470622     0.96851193    -0.00024451    -0.00252765    -1.33422126
O       2.32933457     1.16468007     4.97722486     0.00024451     0.00252765     1.33422126
O      -0.00002631    -1.16468600     3.94138042    -0.00252765    -0.00024451    -1.33422126
O       2.32940736     3.49407223     2.00435637     0.00252765     0.00024451     1.33422126
