# total energy = -4989.60362439 eV

CRYSTAL
PRIMVEC
        3.63654350     0.00000000     0.00000000
        0.36273904     3.61840698     0.00000000
       -1.99967353    -1.80923267     4.64686543
PRIMCOORD
6 1
Ti      0.27191494     2.71394288     1.16171613     0.00207437    -0.00227491    -0.00104978
Ti      1.72769376    -0.90476886     3.48514875    -0.00207437     0.00227491     0.00104978
O       0.09072310     0.90459602     0.75693633    -0.00009153     0.00087598     0.73148066
O       1.90888550     0.90457790     3.88992865     0.00009153    -0.00087598    -0.73148066
O      -0.09070297    -0.90457781     3.08036894     0.00086878    -0.00004731     0.73178354
O       2.09031151     2.71375169     1.56649603    -0.00086878     0.00004731    -0.73178354
