# total energy = -39027.22356000 eV

CRYSTAL
PRIMVEC
        7.60600008     0.00000000     0.00000000
        0.00000000     7.60600008     0.00000000
       -3.79573973    -3.79573973     9.71340985
PRIMCOORD
46 1
Ti      1.95345046     4.31714945     6.30040963    -1.44816205     1.49947101    -1.63334171
Ti      3.63951100    -0.18138598     1.53255002     2.46103978    -1.90846039    -3.55678676
Ti      2.02500645     0.45874646     6.26919363    -1.55250106    -1.03901480     0.14470277
Ti      3.53021197     3.07724800     1.16234302     3.85528269    -1.61535555    -0.83595414
Ti     -1.90383957     4.55704344     6.04270963     0.78494960     1.05439668     0.98307374
Ti     -0.01207101     6.95556398     1.27734202    -2.84830873     0.26068810    -0.88350259
Ti     -1.83606657     0.93871345     5.90466363     2.26004217    -1.50377735     1.38542300
Ti     -0.28465302     3.02906900     0.97681702    -0.48152692     1.01124250     2.20347659
Ti      4.01871243     1.40396646     8.45764864    -0.10535228     0.24942152     0.33342155
Ti      5.87357299     2.77006298     3.57943901    -3.52191641    -1.38641390    -1.57823267
Ti      4.08790447    -2.51764554     8.44338361    -1.21725530    -0.26943320     0.53663134
Ti      5.50652797    -1.23477902     3.63558699     3.70120439     1.27773616     0.38365347
Ti     -0.06822857     1.15237247     8.39086462     3.85079534    -1.40372566     2.56395645
Ti      1.73931000     2.31372402     3.54633003     1.81261477    -0.26235495     1.04730841
Ti      0.29596444    -2.75079956     8.49918762    -1.29601697     0.35861580    -1.47480743
Ti      1.75189002    -1.24370201     3.53109898    -0.90618102     0.60493426     2.84287985
O       1.73632946    -1.42215058     5.87293464     0.61209993     0.64703121    -1.28836330
O       3.33971901     1.23165000     0.40554202    -0.28075351     0.64138558     3.09407852
O      -1.87953054     2.78398045     5.41991462    -0.10354556    -0.59082713     1.58277684
O      -0.03156299     5.03888002     0.54349298     0.26504355     0.63210620     2.49829687
O      -1.77372054    -1.29085853     5.67239763    -0.74661058     0.75050709    -1.15964226
O      -0.18716798     1.28918998     0.71231698     1.18043221    -1.70291296     0.55795093
O       3.91898347     3.31184746     9.05479262     0.63436543    -2.47873669    -1.54385263
O       5.87140601     4.56809298     3.82131402    -0.45147534     1.16039919     0.27708403
O       3.93165843    -0.67979353     8.94311563     0.60726960     0.30633086    -2.95624240
O       5.78892601     0.72268901     4.18788500    -0.71129878     0.22882621    -2.49352773
O      -0.18719957     2.80312947     9.44948863     0.62005210     0.65517595     0.74691269
O       1.65922500     3.85676397     4.36915900     1.31660508     1.87685510     1.10841558
O       0.13064243    -0.84734253     8.86033564    -0.21797358     1.96535790    -0.29102225
O       2.06288601     0.50401403     4.27128100     0.19008096     1.00721024     0.03830765
O       1.61700047     1.40491347     8.04874660     6.86524265     0.39095695    -2.08874467
O       3.90072701     2.54586498     3.15390900    -0.00283644     0.05596034    -0.27365855
O       2.07109445    -2.63107257     8.22597060    -0.58628990    -0.85214772     0.07280544
O       3.82889401     6.25118699     3.07631400    -2.44784821    -0.43819327     0.73091194
O      -1.68569556     1.06321843     8.13884464    -8.19491434     0.65151315    -0.75946327
O      -0.02658698     2.80233502     3.03786398    -0.00583743    -1.06271498    -0.83843911
O      -1.79806656    -2.88761357     7.88631263     0.20186278     0.47146208     0.61293631
O      -0.13046997    -0.79455800     3.24806498     1.61661385    -1.84247866    -0.19584023
O       3.72316344     4.63474243     6.56248562     3.15945424    -0.58010537    -0.81733343
O       5.72760500    -0.50992398     1.53489100    -1.35279132    -0.29189899     1.16508940
O       4.09698843     0.77923245     6.58111261    -3.94852944     0.04598111     0.05660826
O       5.55940601     2.97309099     1.33747603    -0.22767435     0.79815094     0.63405099
O       0.11772945     4.23410143     6.55583164    -0.40544718    -0.29859929     0.96720000
O       1.82252799    -0.42196202     1.81813301    -0.27746353    -0.44533940     0.01076676
O       0.00399243     0.73993045     6.39669661     0.56224853     0.48333878    -0.46792552
O       1.98293098     2.63105198     1.78068102    -3.21878915     0.88743510    -1.44203974
