# total energy = -4989.23642102 eV

CRYSTAL
PRIMVEC
        2.95179372     0.00000000     0.00000000
        0.91584511     4.53343377     0.00000000
       -0.00000610    -0.00006056     4.64855057
PRIMCOORD
6 1
Ti      1.93381632     2.26668661     2.32427539     0.00000000     0.00000000     0.00000000
Ti      0.00000000     0.00000000     0.00000000     0.00000000     0.00000000     0.00000000
O       1.65438035     0.88348771     0.90593410    -1.35628647     0.59033579     0.56798364
O       2.21325229     3.64988551     3.74261668     1.35628647    -0.59033579    -0.56798364
O       0.27943347     1.38317437     3.23021032     1.35587690    -0.58984471     0.56747199
O       0.63640554     3.15019874     1.41834046    -1.35587690     0.58984471    -0.56747199
