# total energy = -39035.91622103 eV

CRYSTAL
PRIMVEC
        7.60600008     0.00000000     0.00000000
        0.00000000     7.60600008     0.00000000
       -3.79573973    -3.79573973     9.71340985
PRIMCOORD
46 1
Ti      1.83262644     4.84927745     5.99945362     0.91465306    -0.06225594    -0.44130405
Ti      3.76068200     6.88269400     1.29618798     0.88284156    -1.34932752    -0.35956737
Ti      2.02657646     0.92066544     6.16408061    -2.07884515    -0.98870060    -2.89209721
Ti      3.96054600     2.74906602     1.24468098     0.36545083     1.08343499     0.71780933
Ti     -1.99805455     4.61620545     6.18840662    -0.35883769    -0.30376207    -0.31716498
Ti      0.00036799     6.70676500     1.21227401    -0.72690538     0.64031137     0.99426704
Ti     -1.97928156     0.86735247     6.00311262     1.17662466     0.59905955    -0.33480789
Ti      0.13549499     2.92655303     1.20488299    -0.99750509    -0.47771989    -1.36786493
Ti      3.75648044     1.02786945     8.54653565     1.82260866    -0.78424281    -0.12961270
Ti      5.76987399     2.90469398     3.56611702    -1.06441911    -1.96151204     0.86849172
Ti      3.57421645    -2.87733155     8.51116761     2.28318416     1.19746192     0.56516571
Ti      5.71853802    -1.10110101     3.65524100     0.57881750     2.52201017    -0.65502605
Ti      0.05901745     0.87608442     8.34658862    -2.05055452     1.03228468     0.03447696
Ti      1.87570300     2.71659798     3.45871902     0.75278303     0.13369047     1.42046920
Ti     -0.01082453    -2.80911955     8.46187364    -1.28353297    -1.08001362     0.79981753
Ti      1.95422698    -0.99893901     3.57742602    -0.98077492     0.54139457     2.08111106
O       2.10009146    -0.99356156     5.63156563    -0.65224695     0.56053618    -0.07667110
O       3.89722899     0.97859802     0.94600599     0.11892462     0.69043967    -1.54597277
O      -2.15901857     2.76521747     5.66018962     0.64926318     0.91479782    -0.47046397
O      -0.12984602     4.80075703     0.77302202     0.65311547     0.85914267     0.37281858
O       5.41439144    -0.92088753     5.52113861     0.32566222    -2.08365697     2.07885646
O      -0.21384502     1.07610702     0.90291800     0.70836644    -1.78456763    -0.91968960
O       4.08598345     2.92757048     8.89033661    -1.46709155    -0.17458774     0.85769282
O       5.87973102     4.70189200     4.09166501    -0.68871832    -0.43846658     0.55178851
O       3.79522145    -0.88114357     8.93575160     0.33066661    -0.57047041    -0.03356499
O       5.63179799     0.81638000     3.94777098     0.74510263     2.16703119     0.85754833
O       0.01852644     2.79391644     9.10353360     0.27803971    -0.70220684    -0.53573274
O       1.92441303     4.60293798     4.11532897    -0.15309999     0.37938698    -0.55537289
O      -0.00092654    -0.97120753     8.95604460     0.22654024     0.98764079    -0.59170542
O       1.75032202     0.98554701     4.09001102     0.36635354     0.39025375     0.35021086
O       1.93990845     0.93099344     8.06101362    -0.02217809     0.61149469     1.08474317
O       3.78860700     2.83655199     3.16183698     1.19245906     0.26921388     0.12367551
O       1.83288843    -2.77673056     8.05438361    -0.20128557    -0.27319087     0.69865023
O       3.66622402    -0.55328699     3.25222400     1.18936062    -1.77412406     0.14003339
O      -1.79406656     0.99033347     8.02491061    -1.10779877    -0.43475828     0.08419415
O      -0.03759402     2.86783398     3.36751802     1.50983718    -0.12371099    -1.18493190
O      -1.90483056    -2.87803155     8.12770165     0.29807041     0.44304161    -0.98660335
O      -0.01319302    -0.88700701     3.22802001     0.38479016    -0.63383347    -0.37693286
O       3.67821645     4.57776845     6.54576060     0.83735539    -0.01175714    -0.06566626
O       5.64207699     6.55323999     1.76324500    -0.21869760    -0.40623831    -1.51222882
O       3.76426644     0.88764546     6.55088664     1.59842740     0.52611141     0.04623694
O       5.85951799     2.90703199     1.56709598    -2.15707742     0.71281882     0.76184772
O       0.04868346     4.56601945     6.45634764    -1.59532691     0.13464332     0.42417150
O       1.90259399     6.82965102     1.64045598    -1.09264006    -0.93064764    -0.63591581
O       0.05486743     0.98495645     6.40037063    -0.15260634    -0.20047362     0.28871082
O       2.01961201     2.95038299     1.53778798    -1.13915545     0.15402431    -0.21388912
