# total energy = -19073.61195005 eV

CRYSTAL
PRIMVEC
        7.60600008     0.00000000     0.00000000
        0.00000000     7.60600008     0.00000000
       -1.89786986    -1.89786986     4.85670466
PRIMCOORD
22 1
Ti      3.49817802     6.69098801     1.39864601     0.35893436    -0.90048576    -0.63195657
Ti      3.96555202     2.83980997     1.10103100     0.24210982     0.74215434     0.58105642
Ti     -0.19250098     6.53088998     1.03636401     2.02552842     0.05076105    -0.14176862
Ti      0.30184800     2.73608499     1.10761000    -0.99437812     1.79151989    -0.42151349
Ti      6.02277123     2.90424223     3.50338179    -1.08734796    -0.06090354     0.43729802
Ti      5.89016322    -0.97269478     3.61563981    -0.88697616    -0.49227876     0.64936217
Ti      2.05136323     2.91057621     3.64306479     0.86993179     0.19338405     0.16435860
Ti      1.19137823    -1.07603479     3.93983380     0.37842256     0.60620927    -0.85670038
O       3.65470399     4.81239300     0.80051701     0.10963188    -0.26285426     0.05509696
O       3.75034500     0.90704002     0.83771500    -0.01882048     1.21474231     2.65334808
O       0.59689998     4.79998400     0.57276002    -0.99901253    -0.60515126     0.02522125
O      -0.13364901     0.96815698     0.89037200     0.65819828    -1.16960992    -0.78181234
O       5.38619624     4.58009022     3.90715281     0.40941182     3.11755090     0.91331866
O       5.61488823     0.85274623     3.89023782     1.10992816     0.42150835     0.52012022
O       2.02792724     4.88572924     4.35834781    -0.36210196    -1.38738346    -1.82742716
O       1.96879925     0.87839825     3.96545180    -0.60301699     0.97019457     1.31155286
O       3.84384120     2.93655823     3.14031079    -0.49896621    -0.63600271     0.78742532
O       0.16318720     3.49264822     2.94896882     0.00885334    -1.66273123     0.69970799
O       5.73684099     6.52839099     1.72436000    -1.42141845    -0.21138770     0.26668495
O       5.77389600     2.93885698     1.60970200     0.52360690    -0.33115384    -1.19037004
O       1.50728599    -0.83871599     2.18132900     1.41342978    -0.61262520    -2.36035534
O       2.07809901     2.81865299     1.65583499    -1.23594826    -0.77545734    -0.85264754
