# total energy = -19517.81401406 eV

CRYSTAL
PRIMVEC
        5.17600016     0.00000000     0.00000000
        0.00000000     5.50899976     0.00000000
        0.00000000     0.00000000     9.26300011
PRIMCOORD
23 1
Ti      1.83549701     3.21090002     3.41948100    -0.00866976     0.42271857     1.73148436
Ti      3.43825002     2.24821801     5.84147400     0.59447578    -0.06545928    -1.82591715
Ti      4.24032900     2.19822500     1.48593501     1.48975789    -1.10985797    -1.81837122
Ti      0.84212902     3.44447298     7.76380402    -1.64523872     0.37045779     1.87436524
Ti      1.93858497     0.17143702     1.46605800    -0.04378025     0.26879968    -2.28892184
Ti      3.28640298     5.09512399     7.94050302    -0.39868517     1.43242587     2.50107855
Ti      0.81316101     0.58190997     5.90242902    -0.46249098    -1.07005574    -2.58438001
Ti      4.45955602     4.89923400     3.38862198     0.76526754     1.32509127     1.92221657
O       1.81481602     1.93494498     4.82217802    -0.58297112     0.15543738    -0.38567462
O       3.67542700     3.59379601     4.50914702    -0.99388369    -0.22907175     0.42306310
O       4.86852198     3.03061102     9.25276502    -0.01495328     0.11197364    -0.46296021
O       3.67999602     0.68780602     0.23390799    -1.15647055    -0.34464057    -0.33713500
O       1.63874701     4.79584102     9.05028800     0.15835302    -0.18547971     0.05211988
O       4.30749800     0.85029000     4.78831099    -0.25616707    -0.08680587    -0.47368377
O       0.95612402     4.83495500     4.34944498     1.45117101    -0.91834543     0.36591208
O       0.16329902     3.40644398     2.54758401     0.87090367    -1.02051082    -0.49194478
O       0.00132998     1.97335398     6.77846000    -0.50301415     1.41398282     1.15387450
O       2.50596602     1.88842098     2.13725801    -0.36019986    -0.03461863     0.17066629
O       2.61276801     3.51138300     7.10177698    -0.16182478    -1.07582709    -0.04992081
O       0.17890102     0.64899102     2.06330702     0.09164958     0.37970271     0.11566035
O       4.90474702     4.73248797     7.01645699     1.15584345     0.20688132    -0.30131129
O       2.47405599     0.81107002     6.88784300     0.07627849    -0.01098170     0.19123461
O       2.94661800     4.35222999     2.20169698    -0.06535104     0.06418324     0.51854491
