# total energy = -19951.84632628 eV

CRYSTAL
PRIMVEC
        4.81495460     0.00000000     0.00000000
        0.25609474     5.11816470     0.00000000
        0.00000000     0.00000000     8.62040467
PRIMCOORD
24 1
Ti      1.89695089     3.03301954     3.19810865     0.54176866     0.53075379    -0.53269086
Ti      3.17409824     2.08514497     5.42229612    -0.54176866    -0.53075379     0.53269086
Ti      4.25692053     2.08514672     1.11205929    -0.71012276    -0.84631954     1.13421070
Ti      0.81412866     3.03301798     7.50834558     0.71012276     0.84631954    -1.13421070
Ti      1.76890363     0.47393738     1.11209384     0.54185505     0.52652613     0.52298340
Ti      3.30214551     4.64422727     7.50831103    -0.54185505    -0.52652613    -0.52298340
Ti      0.68608138     0.47393548     5.42226153     0.71008136     0.84341728     1.14390222
Ti      4.38496780     4.64422917     3.19814324    -0.71008136    -0.84341728    -1.14390222
O       1.61413877     1.80219272     4.39892652    -1.55876787    -1.29079120    -0.28228178
O       3.45691037     3.31597179     4.22147825     1.55876787     1.29079120     0.28228178
O       0.97371823     1.80221337     0.08875189     1.55299934    -1.41594175    -0.11696107
O       4.09733095     3.31595118     8.53165263    -1.55299934     1.41594175     0.11696107
O       3.32886310     0.75688948     0.08872394     1.56008864     1.29165534    -0.28247795
O       1.74218604     4.36127502     8.53168058    -1.56008864    -1.29165534     0.28247795
O       3.96928369     0.75686888     4.39895452    -1.55172715     1.41506706    -0.11652630
O       1.10176540     4.36129573     4.22145025     1.55172715    -1.41506706     0.11652630
O       0.33070977     3.11315779     2.32858640    -0.73386279    -0.04275412    -0.78265181
O       4.74033942     2.00500671     6.29181842     0.73386279     0.04275412     0.78265181
O       2.68274622     2.00495903     1.98164340    -0.31487464    -0.72843339    -0.07376986
O       2.38830297     3.11320548     6.63876123     0.31487464     0.72843339     0.07376986
O       0.20266250     0.55407549     1.98161588    -0.73251630    -0.04262299     0.78615571
O       4.86838669     4.56408902     6.63878874     0.73251630     0.04262299    -0.78615571
O       2.26025570     0.55412317     6.29184588     0.31629234     0.72770808    -0.07728019
O       2.81079349     4.56404133     2.32855884    -0.31629234    -0.72770808     0.07728019
