# total energy = -19892.41177588 eV

CRYSTAL
PRIMVEC
        8.38471906     0.00000000     0.00000000
        0.00002607     2.97462555     0.00000000
        0.00000000     0.00000000    13.33938082
PRIMCOORD
24 1
Ti      3.03907263     1.76276025     4.94881526    -0.09860107     0.29906440     1.78510653
Ti      5.34567215     1.21186502     8.39056596     0.09860107    -0.29906440    -1.78510653
Ti      7.23128913     1.21186598     1.72082206    -0.09811230    -0.29890114    -1.78580279
Ti      1.15345571     1.76275940    11.61855928     0.09811230     0.29890114     1.78580279
Ti      3.03905994     0.27544753     1.72087555    -0.09856045     0.29706563    -1.78532405
Ti      5.34568490     2.69917785    11.61850578     0.09856045    -0.29706563     1.78532405
Ti      1.15344296     0.27544651     8.39051247     0.09797706     0.29698772    -1.78481882
Ti      7.23130188     2.69917887     4.94886875    -0.09797706    -0.29698772     1.78481882
O       2.65382557     1.04741613     6.80698409     3.37723164     0.12864751    -0.69910455
O       5.73091927     1.92720919     6.53239713    -3.37723164    -0.12864751     0.69910455
O       1.53860108     1.04742821     0.13733643    -3.37602348     0.12868865    -0.69992242
O       6.84614381     1.92719711    13.20204439     3.37602348    -0.12868865     0.69992242
O       5.73090652     0.43989636     0.13729310    -3.37920779    -0.12837446    -0.69984271
O       2.65383832     2.53472891    13.20208772     3.37920779     0.12837446     0.69984271
O       6.84613107     0.43988434     6.80702735     3.37735069    -0.12845210    -0.70177721
O       1.53861366     2.53474098     6.53235387    -3.37735069     0.12845210     0.70177721
O       0.30465189     1.80933588     3.60329961    -0.74075386     0.34727235     2.36561633
O       8.08009295     1.16528939     9.73608155     0.74075386    -0.34727235    -2.36561633
O       4.49702250     1.16526181     3.06643338    -0.73909242    -0.34740065    -2.36468508
O       3.88772234     1.80936351    10.27294762     0.73909242     0.34740065     2.36468508
O       0.30463914     0.32202310     3.06639080    -0.74094670     0.34838461    -2.36423539
O       8.08010570     2.65260222    10.27299019     0.74094670    -0.34838461     2.36423539
O       3.88770965     0.32205068     9.73612407     0.73897158     0.34834193    -2.36459098
O       4.49703519     2.65257459     3.60325703    -0.73897158    -0.34834193     2.36459098
