# total energy = -19958.64855706 eV

CRYSTAL
PRIMVEC
        7.60600008     0.00000000     0.00000000
        0.00000000     7.60600008     0.00000000
       -1.89786986    -1.89786986     4.85670466
PRIMCOORD
24 1
Ti      3.71533701     6.47016800     1.14638001     0.02442369     2.00192954     0.90090074
Ti      3.70293601     2.74353898     1.28528100     1.87924211    -1.27281147    -0.06107401
Ti      0.02438301     6.86248001     1.23048401    -1.00543541     0.13275819    -1.61436002
Ti      0.04562699     2.96114598     1.21548601    -2.34628806     0.20226079    -1.16043185
Ti      5.63947021     2.86944623     3.62861883     0.42227300     1.49651938     0.23416331
Ti      5.87539124    -0.80788977     3.53644182    -0.44127629    -0.98187098     0.67459190
Ti      1.73861720     2.51324824     3.58701682    -0.36709325     0.80435732     2.14187525
Ti      2.05749920    -1.00475276     3.70786979     0.24368591    -1.40674131    -1.52307683
O       3.86557202     4.61128199     0.68340601    -0.24787243    -0.21783191     0.92937469
O       3.82560898     0.78963501     0.77240500     0.05034813     2.94813468     1.20672175
O       0.02531499     4.97934699     1.05088199    -0.37057632    -2.72762805    -1.32559340
O       7.33403002     1.16821799     0.58803801     1.47579731    -0.39830414     1.19963321
O       5.83864824     4.89656224     4.10324579    -0.06264469    -0.87591141    -1.22206661
O       5.75015123     1.08672724     4.03186582    -0.26855748     0.52191074     1.25577070
O       1.73109621     4.84472324     4.11310881     0.16673379    -2.92018832    -1.01318831
O       1.84506120     0.74615723     4.11335879     0.13728513     2.99015603     0.72051439
O       3.75924523     2.70701024     3.20192581     0.02174203     0.41067937    -0.25248242
O       3.89547424    -0.80053479     3.20488782    -1.83689191    -0.98243688    -0.68848923
O      -0.10441778     2.56159122     3.33921582     2.54253632     1.03393275    -0.18012744
O       0.13842721    -0.61905176     3.11910179    -0.96901854    -0.55149952     1.36849922
O       5.73577301     6.89045899     1.67158399    -0.77004594    -0.96276896    -0.88268987
O       5.85341298     2.75082998     1.67432301    -2.94221343     1.20838500     0.63814161
O       1.83526301     6.78293901     1.49782599     3.60977824    -0.61435659     0.62512129
O       1.83168498     2.73251500     1.77049298     1.05406758     0.16132496    -1.97172807
