# total energy = -39035.54029287 eV

CRYSTAL
PRIMVEC
        5.93200024     0.00000000     0.00000000
        0.00000000     9.29399984     0.00000000
        0.00000000     0.00000000     9.29399984
PRIMCOORD
46 1
Ti      4.45572399     6.91885300     6.97307298     0.26865750     0.93527666     1.94960732
Ti      4.37786000     6.85734302     2.40056502    -0.85269408     0.56964380     0.24499768
Ti      4.51729201     2.34886800     6.90090299    -0.35920561    -0.03022770     0.47886454
Ti      4.48367502     2.50837102     2.19234499    -0.87707175    -0.34172365     0.55080249
Ti      1.53021900     6.99571203     6.91777401    -0.27951296    -0.19008276     0.65189805
Ti      1.40048500     7.01543298     2.31390801     0.70358830    -0.09708232    -0.35692530
Ti      1.50985398     2.20003198     6.91910298     0.92907824     0.77092551     0.75009803
Ti      1.50939502     2.16172299     2.42866798    -0.25065103     1.40414912     0.58641048
Ti      2.90003098     4.63251401     4.79850601    -0.65283033    -1.16015314    -2.13410409
Ti      2.92932300     4.72819799     9.16257602    -0.47727149    -0.12903189    -0.50178619
Ti      3.02991801     9.27712099     4.58071999     1.28373969    -0.59018924    -0.61648469
Ti      2.90623400     9.29193203     0.00017802     2.05592710    -0.09398748     0.15703944
Ti      5.82810502     4.82404601     4.73840799     1.60655209    -1.80626646    -1.35852976
Ti      5.91920701     4.68786701     0.06312899     0.39093021     0.19434025    -0.84307558
Ti      0.07676002     9.14610702     4.78345103    -1.43567420    -0.71301731     0.17365083
Ti      0.03111901     9.24186101     9.27887003    -2.16944649    -0.23750677     0.18266229
O       4.47316498     5.68446599     5.56343300    -0.87767621    -1.36818683    -0.31064851
O       4.39659197     5.58113202     0.93915002    -0.14596852    -0.42447361     0.27108462
O       4.51277199     0.81548098     5.62976399     0.00082790     0.68505758    -0.94474784
O       4.41921901     0.99970198     0.63384999     0.28188994     0.72233422     1.57683167
O       1.53397901     5.67323902     5.52686098    -1.18839723    -0.46713002     0.53039898
O       1.45815098     5.75190699     0.71478300     0.24543503    -1.06832050     1.51724248
O       1.61554401     0.77654899     5.50429897    -0.92374886     1.53527569     0.85363048
O       1.43879601     0.97173501     0.89440502     0.26847521     0.17569614     0.11290335
O       4.47475601     8.30591500     8.38372601    -0.23829353     0.46754063     0.11569943
O       4.53374900     8.23491100     3.91170802     0.08831614     0.79841473    -1.25562029
O       4.39997601     3.68326300     8.44961901     0.24669975     0.05973343     0.43196375
O       4.31908100     3.79545900     3.66263302     0.34797246    -0.12396450     0.23475800
O       1.49600901     8.36422001     8.39513000    -0.00757293     0.03177910    -0.60535772
O       1.42805900     8.48797399     3.63874999     0.09138887     0.00168253     0.05972675
O       1.48305602     3.83316399     8.26446603     0.05127167    -0.83342828     1.16235246
O       1.44742599     3.65502700     3.85847401     0.66392053    -0.19987146    -0.34897853
O       3.00415798     6.06268702     7.92220000    -0.27141578     0.41122008    -1.00656258
O       2.89917900     6.15861601     3.46938099     0.28128882     0.28106050    -2.03481011
O       3.03228402     1.40069101     7.75623102    -1.21719745    -0.35155092     0.47732574
O       3.08319600     1.34912898     3.09824601     0.18360434     0.22122577     0.25278170
O       0.06201201     6.03146900     7.93944202    -0.52762810     0.39407390    -0.97712138
O       0.00328497     5.98862200     3.22196601    -0.09149608     0.56508318    -0.54689930
O       0.10817198     1.36329199     7.77516001    -0.41199989     0.37118696    -0.07627566
O       3.04201400     7.77015399     5.96124199    -0.85926377     0.64214585     0.71366754
O       2.87281000     7.88099302     1.45246899     0.93035300     0.36103804    -0.08521847
O       2.97406700     3.24517102     6.11633601     0.44861730     0.39442074    -0.56937923
O       5.88402302     7.75365498     6.02243002     1.54512790     0.92650174     0.21090536
O       5.87567297     7.96690299     1.45049500    -0.11810650    -0.42711670     0.28312870
O       5.85238801     3.40178600     6.00342102     0.17380304    -1.47832342     0.87202930
O       0.03474102     3.39928701     1.61560503     1.14565828    -0.78817120    -0.82993621
