# total energy = -19961.16522275 eV

CRYSTAL
PRIMVEC
        7.60600008     0.00000000     0.00000000
        0.00000000     7.60600008     0.00000000
       -1.89786986    -1.89786986     4.85670466
PRIMCOORD
24 1
Ti      3.77264702     6.62122302     1.18010501    -0.63644443     0.35912360     0.24116314
Ti      3.73148899     2.86159800     1.15978000    -0.24315137    -0.56886244     0.53221907
Ti      0.01282302     6.74184601     1.17761798     0.50207004    -1.26033544     1.29687366
Ti     -0.06059101     2.87394201     1.18632898     0.48864219     0.95935299     0.93549855
Ti      5.68448621     2.96064321     3.65057482     0.89535436    -1.30192356     0.14355991
Ti      5.68091622    -0.91040279     3.60075479     1.63668723     0.27857065     0.16045567
Ti      1.91435421     2.81712721     3.71036381    -0.66383311    -0.04088801    -2.30583996
Ti      1.93115824    -1.04883979     3.68542882    -1.07405149     0.00103307    -0.71821737
O       3.75636698     4.76548202     0.70053998     0.19469994    -0.88732994     1.59695082
O       3.71403497     0.88702802     0.74921402     0.36182454    -0.00723792     1.17941174
O       0.03662600     4.84080299     0.85849002    -0.47500197    -0.42321891    -0.52920856
O       0.09697099     1.00071900     0.76147701    -0.64266753    -0.89204560    -0.51674642
O       5.96059222     4.72349625     4.04299081    -0.45642343     1.84033051     0.12171684
O       5.93801323     1.02313320     4.16213682    -1.12882526    -0.95936353    -1.57266905
O       1.64281220     4.68083620     4.06092479     0.70902901     0.57150091     0.12095322
O       1.90025021     0.88987325     4.11368382     0.39330617     0.20273233    -0.36519757
O       3.82262220     2.91357522     3.37135079    -0.45895957    -0.10313598    -0.62343670
O       3.83916121     6.34691521     3.15851883     0.25407445     0.64837024     1.08499205
O       0.01941324     2.75085321     3.10416883     0.25100044     0.09950250     0.79230296
O       0.06204222    -0.96172779     3.17646582    -1.64645537     0.42080207     0.12046188
O       5.67192201     6.68539698     1.59755802     0.41054336     0.37079435     0.05894436
O       5.67501399     2.88413000     1.64189201    -0.56652762    -0.08826369    -0.30028696
O       1.88306603     6.54196100     1.78087401     1.04106680     0.62541850    -1.67938633
O       1.93029700     2.83519698     1.61536499     0.85404211     0.15507332     0.22548480
