# total energy = -4986.15772326 eV

CRYSTAL
PRIMVEC
        3.58757880     0.00000000     0.00000000
        1.37983162     3.31161385     0.00000000
       -2.48373851    -1.65582913     4.67670671
PRIMCOORD
6 1
Ti      1.03477673     2.48383788     1.16917643     0.00100247    -0.00100247     0.00000000
Ti      1.44889527    -0.82805313     3.50752964    -0.00100247     0.00100247     0.00000000
O       0.34499520     0.82789913     0.76179719     0.00043786     0.00070988    -1.42438679
O       2.13867664     0.82788556     3.91490893    -0.00043786    -0.00070988     1.42438679
O      -0.34496422    -0.82787847     3.10015045     0.00070988     0.00043786    -1.42438679
O       2.82863600     2.48366312     1.57655572    -0.00070988    -0.00043786     1.42438679
