# total energy = -19071.37730463 eV

CRYSTAL
PRIMVEC
        7.60600008     0.00000000     0.00000000
        0.00000000     7.60600008     0.00000000
       -1.89786986    -1.89786986     4.85670466
PRIMCOORD
22 1
Ti      3.89417898     6.76348000     1.46684499    -0.17497700    -0.63277495    -1.56066791
Ti      3.37162798     2.83009301     0.97032401     3.36008752    -0.03329528     0.51168623
Ti     -0.15317099     6.56009400     1.26553602     1.40728175     0.48355398    -1.53107219
Ti     -0.04258602     2.93124498     1.18788000    -2.15549568    -0.90813686    -0.32899128
Ti      5.38810721     2.99446123     3.53645881     0.39396617     0.35220115    -0.86746430
Ti     -1.17318279    -0.42821478     3.80951681    -1.24777457    -1.55479654     2.50812441
Ti      1.83259421     2.81405423     3.66310780     2.55812441    -0.20458353     3.79459023
Ti      2.03736221    -1.09022780     3.71378483    -0.23061107     0.19132691    -0.98552915
O       3.92895502     4.59963998     0.76382598    -1.58618252     0.38980227    -0.06045437
O       3.84383199     0.96340301     0.87889901     0.40770872    -1.87808614     0.85349909
O       0.36288298     4.65818699     0.75506698    -0.74153805     0.97360591    -0.92186784
O      -0.13587499     0.86095001     0.74657798     0.70959234    -0.61016337     0.69644346
O       5.05934325     4.66478424     4.25221184     0.42225629    -2.02471929    -0.49573998
O       5.16126421     0.75358423     3.81209681     0.73202060     2.64367276     0.30076005
O       2.27637723     4.60875723     4.34527681    -1.07364603     1.47287550    -1.04746010
O       2.36733724     0.80915022     4.02643979    -1.74408945    -0.36095551    -0.34535276
O       3.61148122     2.70573323     3.01914380    -0.49473288     0.83689619    -1.66622433
O       0.14972224     2.75784322     3.04203982    -0.30515689    -0.02427868     0.52703983
O       5.73211502     6.36295902     2.30821200     0.49155345     0.05971904    -2.20212034
O       5.80461601     3.17729202     1.59338397    -0.77999406    -0.65755808     1.58706338
O       1.96598101     6.40406302     1.72793502     0.31209039     0.98498639     1.47232812
O       1.74495701     2.41380498     0.41047798    -0.26048319     0.50070813    -0.23859023
