# total energy = -19517.02519052 eV

CRYSTAL
PRIMVEC
        5.17600016     0.00000000     0.00000000
        0.00000000     5.50899976     0.00000000
        0.00000000     0.00000000     9.26300011
PRIMCOORD
23 1
Ti      1.83661199     3.20377999     3.39284201    -0.62747333    -0.26816744     3.58519797
Ti      3.35701099     2.27013997     5.84105801    -0.39957683     0.40967742    -2.76607325
Ti      4.35231402     2.01659703     1.54441799     0.68732246    -0.37993154    -2.31100891
Ti      1.01912802     3.24680702     7.75431100    -1.97795245     0.37308109     1.78551071
Ti      1.97560002     0.32702498     1.38063202     1.20620958    -0.84986972    -1.39440644
Ti      3.16837602     5.30346203     7.84554502     0.45443134     1.40503821     1.28449533
Ti      0.68483098     0.52267498     5.96534301    -0.22925456    -0.37519840    -2.90586470
Ti      4.48430702     4.88560700     3.26775001     0.06305196     0.45767993     3.74077060
O       1.71517698     1.83636502     4.82126000    -0.09677636     0.40483243    -0.49793416
O       3.47030498     3.54875498     4.45565498     0.36298976     0.07093393     0.30726160
O       0.23685302     2.64023802     0.05832602     0.37688967    -0.35103850    -0.25177691
O       3.36455103     0.97497802     0.21198401     0.15337716     0.01740997    -0.31597301
O       1.80270898     4.73045202     8.99133998     0.09484803    -0.28214731     0.56392746
O       4.38509301     0.73687101     4.75975002    -1.30560204     0.46862383     0.26717166
O       0.96666999     4.66945101     4.37344200    -0.01350421    -0.21181193     0.67450628
O       0.04493101     3.30988400     2.54596002     1.05330011    -0.02729947    -0.08548356
O       5.00588603     2.10773198     6.73027100    -0.15960669     0.35446321     0.49978459
O       2.69274998     1.79249602     2.46867199    -0.18609035    -0.15910558    -1.03830646
O       2.66959403     3.74266299     6.93695901     0.20660493    -0.27196497    -0.48060287
O       0.25583000     0.59530102     2.09130500    -0.17670941     0.11949284    -0.42750751
O       5.06472397     4.84693002     7.28429900    -0.25208107    -0.33572372     0.08733629
O       2.18272598     1.27257302     7.06292701     0.59660106    -1.28268476     1.06360175
O       2.79841403     4.46762502     2.33274302     0.16900124     0.71371022    -1.38462673
