# total energy = -19073.86387846 eV

CRYSTAL
PRIMVEC
        5.17600016     0.00000000     0.00000000
        0.00000000     5.50899976     0.00000000
        0.00000000     0.00000000     9.26300011
PRIMCOORD
22 1
Ti      1.81341402     3.43921100     3.44884399     0.71501480     1.16818141    -1.37500771
Ti      3.68491297     2.17748501     5.82813502    -1.29515745     0.13187090     0.34584616
Ti      4.28837999     2.28167599     1.36470802     0.39340130     0.78484419    -2.34224011
Ti      0.73388799     3.19022998     7.92376002    -0.76123297    -0.59767912     2.21400346
Ti      1.79112201     0.54485402     1.15500502    -0.16598663     1.00435349    -0.80289257
Ti      3.26124102     5.07823397     8.05613497     0.41552796    -0.58749575     0.84119688
Ti      0.81388202     0.02904299     6.12051800     0.45400351     1.16618572    -0.80338416
Ti      4.41988498     5.02540600     3.37913198    -0.40102102     0.21097323    -0.21905704
O       3.49363201     3.49146001     4.34959902     0.73311949    -1.37509076     1.78121439
O       0.90718602     2.02194801     0.09513803     0.10716722    -1.50259464     0.70977926
O       4.28196901     3.62719000     9.06152598    -0.12069971     0.73640407    -0.73488275
O       3.47732902     0.94708001     0.05640098    -0.18953794    -0.35563692     0.82101396
O       1.83595703     4.56616503     9.10832101    -1.22354500     0.75576551    -0.29321206
O       4.35958597     0.61481898     4.91866200    -0.72112426     0.98136087     0.49541320
O       1.15966998     5.05907300     4.32578801    -0.23236071    -1.46817784     0.66633326
O       0.10497300     3.63534198     2.45824201     0.29598422    -0.62866684    -0.23550362
O       5.04716598     1.67810599     7.03379501     0.13837117    -0.42588926    -0.93082428
O       2.43429801     2.15444601     2.10464498     2.07378702    -0.26999756     0.68044065
O       2.05231400     3.60984500     6.66281900     0.44250270     0.91226065    -0.11872999
O       0.15742399     1.00102402     2.27709903    -0.79723022    -1.43325505     0.00950383
O       2.43219400     0.89244701     6.76479998    -0.11209963    -0.58146342    -0.42146593
O       2.72642502     4.72014301     2.36434898     0.25111563     1.37374761    -0.28754457
