# total energy = -19902.61990989 eV

CRYSTAL
PRIMVEC
        8.45459178     0.00000000     0.00000000
        0.00002830     4.33248703     0.00000000
        0.00000000     0.00000000    12.77354469
PRIMCOORD
24 1
Ti      3.06439979     2.56742788     4.73889398     0.31305198    -0.39276598     2.80744978
Ti      5.39022048     1.76505934     8.03465085    -0.31305198     0.39276598    -2.80744978
Ti      7.29155096     1.76506088     1.64782740     0.31221894     0.39305009    -2.80832318
Ti      1.16306938     2.56742654    11.12571761    -0.31221894    -0.39305009     2.80832318
Ti      3.06438570     0.40118443     1.64787863     0.31305198    -0.39276598    -2.80744978
Ti      5.39023464     3.93130292    11.12566639    -0.31305198     0.39276598     2.80744978
Ti      1.16305523     0.40118277     8.03459962    -0.31221894    -0.39305009    -2.80832318
Ti      7.29156504     3.93130458     4.73894520     0.31221894     0.39305009     2.80832318
O       2.67594175     1.52554240     6.51824209     1.11210100     1.22639507    -2.26216873
O       5.77867859     2.80694483     6.25530273    -1.11210100    -1.22639507     2.26216873
O       1.55142373     1.52555983     0.13151079    -1.11274944     1.22674525    -2.26333678
O       6.90319667     2.80692739    12.64203365     1.11274944    -1.22674525     2.26333678
O       5.77866444     0.64070131     0.13146936    -1.11210100    -1.22639507    -2.26216873
O       2.67595583     3.69178591    12.64207514     1.11210100     1.22639507     2.26216873
O       6.90318259     0.64068388     6.51828352     1.11274944    -1.22674525    -2.26333678
O       1.55143762     3.69180341     6.25526130    -1.11274944     1.22674525     2.26333678
O       0.30719221     2.63526425     3.45045308    -2.24975724     0.71063132     0.14118421
O       8.14742806     1.69722304     9.32309174     2.24975724    -0.71063132    -0.14118421
O       4.53449868     1.69718259     2.93635992    -2.24844418    -0.71052308    -0.14183856
O       3.92012159     2.63530469     9.83718471     2.24844418     0.71052308     0.14183856
O       0.30717812     0.46902067     2.93631914    -2.24975724     0.71063132    -0.14118421
O       8.14744221     3.86346655     9.83722550     2.24975724    -0.71063132     0.14118421
O       3.92010751     0.46906111     9.32313246     2.24844418     0.71052308    -0.14183856
O       4.53451283     3.86342611     3.45041230    -2.24844418    -0.71052308     0.14183856
