# total energy = -19516.24765467 eV

CRYSTAL
PRIMVEC
        5.17600016     0.00000000     0.00000000
        0.00000000     5.50899976     0.00000000
        0.00000000     0.00000000     9.26300011
PRIMCOORD
23 1
Ti      1.87417299     3.21272399     3.38500902     0.60948383    -0.88169176     1.15518319
Ti      3.23861398     2.27231399     5.98596399     0.85477848     0.54790486    -2.57298256
Ti      4.38136098     2.04611501     1.55007097     0.97606594    -0.90374258    -1.11390566
Ti      0.88474399     3.37642100     7.78939800    -0.70019521     1.86225765    -0.24309867
Ti      2.12953800     0.16299802     1.39419901    -0.61487184    -0.38409133    -1.51511026
Ti      3.24229002     5.28071598     7.79844899     0.01045565     0.53200361     1.67321979
Ti      0.62727301     0.60801302     5.80661900    -0.77481277     0.41614066    -2.15077847
Ti      4.50572801     4.85105501     3.45618600     0.03728178    -0.25449277     1.42240627
O       1.76989602     2.02634500     4.82155200    -2.04152300    -1.64669757    -0.01887756
O       3.50566799     3.49002498     4.39992801     1.38123467     0.39148454     0.78970434
O       0.15226700     2.71245199     9.15988902    -1.22141304    -1.13717235     2.21232453
O       3.40132001     0.92054600     0.08444103     0.58851879     0.38836965     1.40670403
O       1.76253702     4.71614301     8.99203299     0.36026131    -0.11834921     0.79608685
O       3.97821798     0.62767502     5.12915898     1.41600217    -0.27126563    -1.70224833
O       0.95642501     4.54353799     4.37641201    -0.32257561     1.94269516     1.59114012
O       0.26915098     3.38122498     2.38691997    -0.37388842    -0.19956062    -0.37791400
O       5.05805602     2.26698100     6.61104202    -0.58196736     0.39683732    -0.08814079
O       2.71064500     1.65726599     2.41778403     0.38857199     0.51695494    -0.28780528
O       2.48570700     3.88008201     6.85704801     0.85785943    -1.99101443    -0.70617380
O       0.31224501     0.62415499     2.27667801    -0.40021858     0.53699978    -1.19707831
O       5.05857398     5.11222700     7.17805698    -0.02827160    -2.24161327     1.49406809
O       2.16136399     0.94152100     6.97789399     0.11744572     1.64173508     0.42629729
O       3.05755800     4.26962097     2.19848001    -0.53822208     0.85630828    -0.99302032
