# total energy = -19960.51780269 eV

CRYSTAL
PRIMVEC
        5.93400000     0.00000000     0.00000000
        0.00000000     9.29699974     0.00000000
        0.00000000     0.00000000     4.64899994
PRIMCOORD
24 1
Ti      4.49314200     6.90659000     2.37688402    -1.02522339     1.34934321     0.04392114
Ti      4.42575901     2.45337400     2.37677602     0.37537323    -2.61121951     0.06320082
Ti      1.47837201     6.90309998     2.16242298     1.11368095     1.66436774     1.12004340
Ti      1.48077998     2.43693903     2.34104999    -0.06710273    -1.61892142     0.88761225
Ti      2.98506601     4.65424102     0.01748799    -0.24273331    -0.07708042    -0.55114239
Ti      2.94531802     9.20178102     0.00881699     0.38315262     0.46666542    -0.50157125
Ti      5.90391802     4.66899702     4.64112198     0.22763193    -0.50096524     0.07779210
Ti      0.01956601     0.02339397     0.04573901    -0.38901191     0.45169671    -0.39912458
O       4.37605201     5.57442401     0.83208598     0.60414108    -0.17225086    -0.37214084
O       4.41550599     0.81487401     0.92460601     0.59385332     0.22058582    -0.35119122
O       1.46321902     5.54068801     0.87964399    -0.03534343    -0.09226767    -0.49601406
O       1.51343699     0.90963802     0.90561400    -0.30020469    -0.20840907    -0.15937195
O       4.47930100     8.26451302     3.70302200    -0.21858550     0.94914237     0.46369580
O       4.43586899     3.63575198     3.78247098    -0.06677749     1.52094744     1.26266923
O       1.47096601     8.32734900     3.69623398    -0.03587847     0.25604855     0.35312084
O       1.42811499     3.75973901     3.78228302     0.58594254     0.09040259    -0.10599248
O       3.00886300     5.95418499     2.98389399    -0.89787609    -0.63489045     1.83836490
O       2.99513302     1.43879802     3.23160699    -0.00467504     0.35810338    -0.45535642
O       5.80171400     5.99532598     3.30300798     1.46970893     0.01145710    -0.94343374
O       5.92689903     1.58119199     3.30595798     0.62781349    -1.00138643    -0.28350819
O       2.96724898     7.85844002     1.39488901    -0.71211794    -0.23628473    -0.06591334
O       3.06872099     3.41980300     1.53424799    -1.10328314    -0.28545503    -0.87037659
O       0.01154501     7.83195798     1.38243302     0.18360897    -0.27210329     0.01486870
O       0.10852399     3.29068502     1.45384798    -1.06609392     0.37247405    -0.57015211
