# total energy = -4986.38924652 eV

CRYSTAL
PRIMVEC
        4.13056369     0.00000000     0.00000000
        1.58867100     3.81283109     0.00000000
       -2.85965569    -1.90644111     5.38453259
PRIMCOORD
6 1
Ti      1.19139159     2.85977010     1.34613287     0.00025068    -0.00025068     0.00000000
Ti      1.66818753    -0.95338009     4.03839899    -0.00025068     0.00025068     0.00000000
O       0.39721069     0.95320278     0.87709623    -0.00070551    -0.00105775    -1.74372512
O       2.46236824     0.95318716     4.50743569     0.00070551     0.00105775     1.74372512
O      -0.39717502    -0.95317899     3.56936241    -0.00105775    -0.00070551    -1.74372512
O       3.25675388     2.85956888     1.81516956     0.00105775     0.00070551     1.74372512
