# total energy = -19958.38616831 eV

CRYSTAL
PRIMVEC
        5.63639427     0.00000000     0.00000000
        0.00002621     4.90813216     0.00000000
        0.00000000     0.00000000     9.26345879
PRIMCOORD
24 1
Ti      2.04293735     2.90855447     3.43667726    -0.15027898     0.77004543    -1.34916503
Ti      3.59348318     1.99957748     5.82678190     0.15027898    -0.77004543     1.34916503
Ti      4.86103682     1.99957906     1.19501531    -0.14861573    -0.76955434     1.34908018
Ti      0.77538370     2.90855304     8.06844396     0.14861573     0.76955434    -1.34908018
Ti      2.04292445     0.45448850     1.19505245    -0.15065333     0.76823383     1.34867343
Ti      3.59349608     4.45364361     8.06840681     0.15065333    -0.76823383    -1.34867343
Ti      0.77537081     0.45448670     5.82674476     0.14825063     0.76807133     1.35033180
Ti      4.86104972     4.45364535     3.43671440    -0.14825063    -0.76807133    -1.35033180
O       1.78396362     1.72823670     4.72707226     0.52945127    -0.56150883     0.75288690
O       3.85245691     3.17989525     4.53638690    -0.52945127     0.56150883    -0.75288690
O       1.03428491     1.72825653     0.09537251    -0.52973718    -0.56133836     0.75247013
O       4.60213567     3.17987547     9.16808638     0.52973718     0.56133836    -0.75247013
O       3.85244402     0.72582912     0.09534244    -0.53055685     0.56082260     0.75271284
O       1.78397651     4.18230283     9.16811645     0.53055685    -0.56082260    -0.75271284
O       4.60212272     0.72580934     4.72710233     0.52955952     0.56222359     0.75310416
O       1.03429770     4.18232266     4.53635683    -0.52955952    -0.56222359    -0.75310416
O       0.20479908     2.98540423     2.50229141     0.44501056    -0.25880014     0.38240674
O       5.43162145     1.92272772     6.76116774    -0.44501056     0.25880014    -0.38240674
O       3.02300186     1.92268211     2.12946763     0.44376486     0.25901149    -0.38393166
O       2.61341867     2.98544984     7.13399137    -0.44376486    -0.25901149     0.38393166
O       0.20478614     0.53133810     2.12943803     0.44398289    -0.25933802    -0.38381211
O       5.43163439     4.37679385     7.13402097    -0.44398289     0.25933802     0.38381211
O       2.61340573     0.53138371     6.76119729    -0.44490977    -0.25902537    -0.38183904
O       3.02301480     4.37674824     2.50226181     0.44490977     0.25902537     0.38183904
