# total energy = -19915.38616291 eV

CRYSTAL
PRIMVEC
        7.64458667     0.00000000     0.00000000
        0.00002503     3.48692217     0.00000000
        0.00000000     0.00000000    11.63446342
PRIMCOORD
24 1
Ti      2.77080970     2.06634687     4.31630295    -0.21115424     0.13581600     1.89736351
Ti      4.87380167     1.42057536     7.31816064     0.21115424    -0.13581600    -1.89736351
Ti      6.59297219     1.42057655     1.50088231    -0.21161755    -0.13370667    -1.89876502
Ti      1.05163918     2.06634579    10.13358139     0.21161755     0.13370667     1.89876502
Ti      2.77079735     0.32288583     1.50092898    -0.21115424     0.13581600    -1.89736351
Ti      4.87381402     3.16403645    10.13353472     0.21115424    -0.13581600     1.89736351
Ti      1.05162683     0.32288454     7.31811397     0.21161755     0.13370667    -1.89876502
Ti      6.59298454     3.16403775     4.31634962    -0.21161755    -0.13370667     1.89876502
O       2.41956867     1.22780456     5.93697767     3.48559803     0.13874192    -0.42431368
O       5.22504270     2.25911761     5.69748592    -3.48559803    -0.13874192     0.42431368
O       1.40278681     1.22781863     0.11978331    -3.48307680     0.13747642    -0.42224446
O       6.24182462     2.25910360    11.51467995     3.48307680    -0.13747642     0.42224446
O       5.22503040     0.51565652     0.11974557    -3.48559803    -0.13874192    -0.42431368
O       2.41958097     2.97126571    11.51471769     3.48559803     0.13874192     0.42431368
O       6.24181232     0.51564246     5.93701541     3.48307680    -0.13747642    -0.42224446
O       1.40279899     2.97127977     5.69744818    -3.48307680     0.13747642     0.42224446
O       0.27776063     2.12094371     3.14275885    -0.75025641     0.11419508     0.34698876
O       7.36685075     1.36597846     8.49170474     0.75025641    -0.11419508    -0.34698876
O       4.10006369     1.36594597     2.67450993    -0.74932464    -0.11353404    -0.34764464
O       3.54454769     2.12097626     8.95995349     0.74932464     0.11353404     0.34764464
O       0.27774833     0.37748263     2.67447280    -0.75025641     0.11419508    -0.34698876
O       7.36686304     3.10943960     8.95999062     0.75025641    -0.11419508     0.34698876
O       3.54453539     0.37751511     8.49174181     0.74932464     0.11353404    -0.34764464
O       4.10007598     3.10940712     3.14272173    -0.74932464    -0.11353404     0.34764464
