# total energy = -19926.42278121 eV

CRYSTAL
PRIMVEC
        6.21587587     0.00000000     0.00000000
        1.31004659     6.48456360     0.00000000
        0.00000000     0.00000000    11.18164975
PRIMCOORD
24 1
Ti      3.02928833     3.84274639     4.14831245    -0.12713698    -1.75299473     0.76468313
Ti      4.49663383     2.64181737     7.03333775     0.12713698     1.75299473    -0.76468313
Ti      5.89450583     2.64181970     1.44246797     0.03546967    -0.22697527    -0.27407456
Ti      1.63141635     3.84274431     9.73918235    -0.03546967     0.22697527     0.27407456
Ti      2.37426519     0.60046483     1.44251281    -0.12713698    -1.75299473    -0.76468313
Ti      5.15165699     5.88409912     9.73913752     0.12713698     1.75299473     0.76468313
Ti      0.97639310     0.60046232     7.03329291    -0.03546967     0.22697527    -0.27407456
Ti      6.54952908     5.88410163     4.14835728     0.03546967    -0.22697527     0.27407456
O       2.42865352     2.28332511     5.70591045     1.74289749     1.91041906    -0.51953530
O       5.09726864     4.20123865     5.47573974    -1.74289749    -1.91041906     0.51953530
O       1.60190523     2.28335122     0.11512137    -0.88330513     0.36531353     0.75775323
O       5.92401700     4.20121259    11.06652851     0.88330513    -0.36531353    -0.75775323
O       4.44224547     0.95895690     0.11508507    -1.74289749    -1.91041906    -0.51953530
O       3.08367669     5.52560686    11.06656481     1.74289749     1.91041906     0.51953530
O       5.26899384     0.95893084     5.70594675     0.88330513    -0.36531353     0.75775323
O       2.25692827     5.52563298     5.47570345    -0.88330513     0.36531353    -0.75775323
O       1.02268168     3.94427910     3.02044267     0.46519501     1.19556830     1.39253981
O       6.50324048     2.54028466     8.16120753    -0.46519501    -1.19556830    -1.39253981
O       3.84697704     2.54022409     2.57041800     0.66232310     1.39944966     0.56863310
O       3.67894512     3.94433966     8.61123200    -0.66232310    -1.39944966    -0.56863310
O       0.36765852     0.70199735     2.57038227     0.46519501     1.19556830    -1.39253981
O       7.15826365     5.78256647     8.61126773    -0.46519501    -1.19556830     1.39253981
O       3.02392195     0.70205785     8.16124319    -0.66232310    -1.39944966     0.56863310
O       4.50200021     5.78250591     3.02040694     0.66232310     1.39944966    -0.56863310
