# total energy = -19961.05582886 eV

CRYSTAL
PRIMVEC
        5.93400000     0.00000000     0.00000000
        0.00000000     9.29699974     0.00000000
        0.00000000     0.00000000     4.64899994
PRIMCOORD
24 1
Ti      4.49857703     6.95577100     2.23127201    -1.36761964     0.84210859     0.42381335
Ti      4.40738698     2.30907901     2.29982899     0.69606216     0.29550034     0.57540359
Ti      1.47003302     6.94749699     2.39821600     1.23586341     0.60841168    -0.15230681
Ti      1.46773301     2.28655701     2.35185002    -0.60514663     0.02898560     0.42120959
Ti      2.97625499     4.67445602     0.00026602    -0.27930187    -0.36501168    -0.38637293
Ti      2.94545698     0.08108498     0.04058001     0.13920343    -1.40504335    -0.56632708
Ti      0.02461801     4.61500798     4.61286799     0.14101195    -0.56219865    -0.02500964
Ti      5.93128702     9.28807300     0.05773303    -0.40609510    -0.37602835    -1.39933910
O       4.42709798     5.47981902     0.83876002     0.65018389     1.21014646     1.23108630
O       4.41330001     0.86037802     0.88777099     0.54119993     0.73420269     1.12243710
O       1.48090798     5.57173801     0.86763002    -0.23905149    -0.29525968     0.01372301
O       1.46873802     0.89410899     0.95540000     0.15478741     0.02166669    -0.04576257
O       4.46744600     8.44269901     3.72427101     0.08930704    -0.43302021    -0.18884837
O       4.42320499     3.83155101     3.68906400     0.17989861    -0.88825014    -0.21904676
O       1.47776102     8.43344402     3.69090802    -0.21614064    -0.09717745     0.34520107
O       1.51635201     3.75838500     3.69423999    -0.19317091     0.29653341     0.42045677
O       3.00589601     6.14989601     3.18523402     0.01088837    -0.72807961     0.52266716
O       2.96690300     1.48393700     3.30462699     0.38780478    -0.23125693    -0.13800530
O       5.85105300     5.98267500     3.21253200     0.48363677     0.87591964    -0.55617507
O       5.90739599     1.47912699     3.31267001     0.29515684    -0.21895908    -0.16966819
O       2.89915498     7.84566203     1.36502002     0.67728899    -0.00057413     0.15749298
O       3.01695100     3.12854501     1.36920602    -0.35926912     0.75705646    -0.25937375
O       0.09104902     7.92243300     1.43570101    -0.99423336    -0.65687982     0.06988030
O       0.08954102     3.20489698     1.49604902    -1.02226431     0.58720753    -1.19713539
