# total energy = -19939.39352079 eV

CRYSTAL
PRIMVEC
        6.49039340     0.00000000     0.00000000
        0.00003018     5.65178855     0.00000000
        0.00000000     0.00000000    10.66701315
PRIMCOORD
24 1
Ti      2.35247331     3.34924454     3.95738593     0.30561763    -0.59309407     0.60254313
Ti      4.13795033     2.30254376     6.70962764    -0.30561763     0.59309407    -0.60254313
Ti      5.59755756     2.30254559     1.37607823     0.30599224     0.59308610    -0.60247860
Ti      0.89286608     3.34924290     9.29093546    -0.30599224    -0.59308610     0.60247860
Ti      2.35245846     0.52335039     1.37612100     0.30561763    -0.59309407    -0.60254313
Ti      4.13796518     5.12843810     9.29089269    -0.30561763     0.59309407     0.60254313
Ti      0.89285124     0.52334832     6.70958487    -0.30599224    -0.59308610    -0.60247860
Ti      5.59757240     5.12844010     3.95742871     0.30599224     0.59308610     0.60247860
O       2.05426113     1.99009074     5.44329533     0.95208217     1.14815945    -0.59131821
O       4.43616251     3.66169756     5.22371825    -0.95208217    -1.14815945     0.59131821
O       1.19099475     1.99011358     0.10982289    -0.95206417     1.14837131    -0.59191933
O       5.29942895     3.66167479    10.55719038     0.95206417    -1.14837131     0.59191933
O       4.43614766     0.83580323     0.10978827    -0.95208217    -1.14815945    -0.59131821
O       2.05427598     4.81598508    10.55722501     0.95208217     1.14815945     0.59131821
O       5.29941404     0.83578045     5.44332995     0.95206417    -1.14837131    -0.59191933
O       1.19100948     4.81600791     5.22368362    -0.95206417     1.14837131     0.59191933
O       0.23582925     3.43773820     2.88142648    -0.66328084     0.02631988     0.09449039
O       6.25459439     2.21405010     7.78558710     0.66328084    -0.02631988    -0.09449039
O       3.48103244     2.21399758     2.45211424    -0.66331349    -0.02615790    -0.09464980
O       3.00939120     3.43779073     8.21489915     0.66331349     0.02615790     0.09464980
O       0.23581434     0.61184387     2.45208016    -0.66328084     0.02631988    -0.09449039
O       6.25460930     5.03994444     8.21493324     0.66328084    -0.02631988     0.09449039
O       3.00937629     0.61189640     7.78562112     0.66331349     0.02615790    -0.09464980
O       3.48104735     5.03989191     2.88139239    -0.66331349    -0.02615790     0.09464980
