# total energy = -4989.75231576 eV

CRYSTAL
PRIMVEC
        2.94539369     0.00000000     0.00000000
        0.68837690     4.56336204     0.00000000
       -0.00000432    -0.00005991     4.62809808
PRIMCOORD
6 1
Ti      1.81688287     2.28165098     2.31404899     0.00000000     0.00000000     0.00000000
Ti      0.00000000     0.00000000     0.00000000     0.00000000     0.00000000     0.00000000
O       1.60685039     0.88932032     0.90194812    -0.96586354     0.38544167     0.36735936
O       2.02691534     3.67398164     3.72614981     0.96586354    -0.38544167    -0.36735936
O       0.21003060     1.39230639     3.21599809     0.96571468    -0.38549747     0.36740486
O       0.47834156     3.17099567     1.41209983    -0.96571468     0.38549747    -0.36740486
