# total energy = -19516.43751634 eV

CRYSTAL
PRIMVEC
        5.93400000     0.00000000     0.00000000
        0.00000000     9.29699974     0.00000000
        0.00000000     0.00000000     4.64899994
PRIMCOORD
23 1
Ti      4.52121602     6.96680699     2.27888802     0.73400729    -0.04528589    -0.47537504
Ti      4.51744098     2.33050698     2.29850700    -1.85755356     0.26656693     0.15380756
Ti      1.62712400     7.10942502     2.37894898    -0.77827604    -0.10477198    -2.46827203
Ti      1.40240798     2.34230901     2.41873702     1.49141188     0.17782296    -0.70339366
Ti      2.96345801     4.61142799     0.16633798    -0.09751555     0.22031046     2.33750722
Ti      3.03015598     0.16043199     4.57385302    -0.98784443    -0.95347956    -0.47275688
Ti      5.89547299     4.49321598     4.53837301    -0.07368373     1.55174104     0.66248586
Ti      0.00770001     0.00125701     4.64042600     0.55494197    -0.48670435     0.35778251
O       4.60097002     5.50008101     1.01419598    -1.23170028    -1.00948001    -1.07708976
O       4.38585798     0.97938501     0.83801901     0.45180521    -0.34395331     0.12944275
O       1.52366498     5.58903099     1.06287198     0.18769137    -0.26663378    -0.60350858
O       1.50569502     0.90815701     0.85260599    -0.77174390    -0.17650578     0.19201391
O       4.32347502     8.50852501     3.41538400     0.21167669     0.15920662     2.46598889
O       4.23983898     3.57543599     3.74275999     1.47721938     0.89534973     0.46736656
O       1.41537499     8.46252199     3.67999999     0.11269972    -0.78042806     0.19739883
O       1.62967098     3.75580701     3.86958901    -1.63846078    -0.47192205    -1.43057698
O       2.82590103     1.48030700     3.16266101     0.98529800    -1.34440900     0.84192630
O       5.66384300     5.83608200     3.31785701     0.82711237     0.91852592    -0.16120977
O       5.86716301     1.32907999     3.22063101    -0.04535531     0.92996682    -0.18851721
O       3.03092001     7.79772000     1.26124000    -1.11878305    -0.35041758     1.05300109
O       2.82421300     3.28573801     1.52223800     0.93273512     0.15388290    -0.61704133
O       5.92309302     7.82689602     1.51188200     0.99532068     0.87105151    -1.28442720
O       5.91534698     3.10438399     1.31707899    -0.36100333     0.18956622     0.62344647
