# total energy = -19958.45813592 eV

CRYSTAL
PRIMVEC
        7.60600008     0.00000000     0.00000000
        0.00000000     7.60600008     0.00000000
       -1.89786986    -1.89786986     4.85670466
PRIMCOORD
24 1
Ti      3.94774399     6.61525401     1.23903699    -0.68624132    -2.91585190    -0.67625746
Ti      3.71670801     2.60222299     1.41103299    -1.91017738     1.50727328    -0.16079891
Ti      0.17622301     6.85934400     1.09152899     0.95079636    -2.90803497     0.59394073
Ti     -0.11823201     2.85461101     1.07980100     1.03058338     1.35604788     1.52823652
Ti      5.72011021     3.07430820     3.68422182     0.39939943    -0.68832674    -1.50873264
Ti      5.74612425    -0.78279476     3.56099083     1.13787221    -0.83271069    -0.35426909
Ti      1.74098125     2.71165822     3.75808681     0.29306036    -0.13724528    -0.15022576
Ti      1.77673421    -0.95850277     3.69956679    -0.18053342    -0.16569892    -1.45893806
O       3.66404201     4.66382500     0.82761300     0.13239849     0.29438037     0.84822396
O       3.88956799     0.77871798     0.76593501     0.54934725     0.54749014     0.57199867
O       0.08411600     4.83333402     0.60898401    -0.20286937    -0.81125611     1.61722706
O       0.11155998     0.98074801     0.76544097    -1.31413605     1.94033797    -1.35701358
O      -1.53027678     4.84612424     3.97299479    -1.00530274     0.87274381    -0.16013453
O      -1.52561378     0.94320622     4.09671183    -1.21127132     0.17453272    -1.77780331
O       1.73347624     4.50109522     4.05481581     0.46168442     2.86193147     0.36783784
O       1.52835021     0.80859723     4.32822481     0.86431367    -0.47621682    -1.53059628
O       3.61470221     2.51506220     3.42159681     1.34092207     0.40199727    -0.88404304
O       3.80343725    -1.03732076     3.16357681     1.81676531     0.48026759     0.51647568
O      -0.01533577     2.95413925     2.92263780    -1.00545006    -0.55329518     1.93253210
O       0.01057524    -0.88715979     3.11510084     0.29980334    -0.45646637     0.58836658
O       6.00502400     6.70741298     1.39971002    -4.59291266    -0.18365371     1.33318870
O       5.50530102     3.09807699     1.72515001     1.05428818    -0.91394447    -1.05558891
O       1.93467801     6.73059200     1.70978201     1.00421902     0.00689236     0.02986620
O       1.80659399     2.58880702     1.49884402     0.77344108     0.59880603     1.14650726
