# total energy = -4989.12305385 eV

CRYSTAL
PRIMVEC
        3.37771606     0.00000000     0.00000000
        0.00000000     4.33012479     0.00000000
        0.00000000    -0.00006359     4.85984833
PRIMCOORD
6 1
Ti      1.68885803     2.16503055     2.42992427     0.00000000     0.00000000     0.00000000
Ti      0.00000000     0.00000000     0.00000000     0.00000000     0.00000000     0.00000000
O       1.68885803     0.84386514     0.94711292     0.00000000     0.11275937     0.03567741
O       1.68885803     3.48619595     3.91273562     0.00000000    -0.11275937    -0.03567741
O       0.00000000     1.32113968     3.37703807     0.00000000    -0.11145762     0.03377917
O       0.00000000     3.00892141     1.48281048     0.00000000     0.11145762    -0.03377917
