# total energy = -19518.09678469 eV

CRYSTAL
PRIMVEC
        5.93400000     0.00000000     0.00000000
        0.00000000     9.29699974     0.00000000
        0.00000000     0.00000000     4.64899994
PRIMCOORD
23 1
Ti      4.47833600     7.03274401     2.23332099     0.71913011     0.67072110     0.19836557
Ti      4.43526599     2.27699901     2.31481598     1.11244450    -0.38716971    -0.06810598
Ti      1.44161398     7.08223298     2.26621401    -0.80312577     0.14373732    -0.08655082
Ti      1.48719900     2.29970098     2.36371502    -1.09017720    -0.34449838    -0.25084000
Ti      3.02289398     4.51675098     0.15135099    -0.35494169    -0.35128456    -0.28430858
Ti      2.95949701     0.01184801     4.57048301     0.32895683    -0.50966843     0.95505334
Ti      0.02892800     4.64459301     4.64798599     0.37065654    -0.77144179    -0.45204407
Ti      0.02662201     0.05994800     4.64882500    -0.81222130     0.65261744     0.51979626
O       4.47792202     5.49923099     0.91872801    -0.76592395     0.92628114    -0.00049725
O       4.31348702     0.88756101     0.93787201     0.86355931     0.39049518     0.24294517
O       1.57539798     5.56637602     0.83707797    -0.14147758     0.85851995     0.46342275
O       1.53138102     0.94199599     0.97903797    -0.65708165    -0.43488323    -0.60435936
O       4.45982098     8.38758499     3.73717902    -0.20059266    -0.56903419     0.14691263
O       4.49306099     3.67806701     3.76005900    -0.65115860     0.52823463    -0.37577098
O       1.34009000     8.33259802     3.88893001     1.23757525    -0.93410347    -1.19719092
O       1.41202599     3.78339402     3.64980201     1.04562202     0.34010411     0.37846807
O       2.89982899     1.27482398     3.26560599     0.32582934     1.58037028    -0.93748935
O       5.89931799     6.13726497     3.07576201     0.27897868    -1.21535500     1.28999698
O       0.01231099     1.39556201     3.29724100    -0.31160882     0.35202452    -0.48775079
O       2.95510198     7.99031099     1.52292402    -0.32555140    -1.32531624     0.24312823
O       2.95510600     3.18421297     1.38858201     0.18529073     0.05717184     0.43708564
O       5.92100198     7.96755599     1.46486000     0.01690115     0.12796205    -0.32257226
O       0.01181102     3.18356098     1.35664801    -0.37108463     0.21451596     0.19230548
