# total energy = -19951.17931387 eV

CRYSTAL
PRIMVEC
        5.58115696     0.00000000     0.00000000
        1.46219200     5.75726102     0.00000000
        0.00000000     0.00000000    10.06923252
PRIMCOORD
24 1
Ti      2.88939465     3.41174772     3.73561364     0.49269271    -2.04143893     0.93966399
Ti      4.15395447     2.34551368     6.33361945    -0.49269271     2.04143893    -0.93966399
Ti      5.40908636     2.34551567     1.29896270    -1.12629941    -0.52351794     0.33319787
Ti      1.63426278     3.41174595     8.77027049     1.12629941     0.52351794    -0.33319787
Ti      2.15829877     0.53311725     1.29900308     0.49269271    -2.04143893    -0.93966399
Ti      4.88505038     5.22414437     8.77023012    -0.49269271     2.04143893     0.93966399
Ti      0.90316679     0.53311504     6.33357908     1.12629941     0.52351794     0.33319787
Ti      6.14018235     5.22414652     3.73565401    -1.12629941    -0.52351794    -0.33319787
O       2.28133408     2.02722960     5.13825252     1.27983675     1.64334279    -0.69157199
O       4.76201498     3.73003180     4.93098057    -1.27983675    -1.64334279     0.69157199
O       1.53900829     2.02725284     0.10366842    -0.28691954    -0.20072327     0.81030275
O       5.50434090     3.73000867     9.96556438     0.28691954     0.20072327    -0.81030275
O       4.03091908     0.85140117     0.10363575    -1.27983675    -1.64334279    -0.69157199
O       3.01243004     4.90586023     9.96559705     1.27983675     1.64334279     0.69157199
O       4.77324499     0.85137797     5.13828519     0.28691954     0.20072327     0.81030275
O       2.27010408     4.90588349     4.93094790    -0.28691954    -0.20072327    -0.81030275
O       1.09216440     3.50189264     2.71995107     0.25052684     1.02014624     0.98482775
O       5.95118466     2.25536876     7.34928202    -0.25052684    -1.02014624    -0.98482775
O       3.56615629     2.25531507     2.31469752     0.95052356     0.88568752     0.11614397
O       3.47719284     3.50194638     7.75453539    -0.95052356    -0.88568752    -0.11614397
O       0.36106850     0.62326201     2.31466536     0.25052684     1.02014624    -0.98482775
O       6.68228063     5.13399944     7.75456755    -0.25052684    -1.02014624     0.98482775
O       2.74609693     0.62331569     7.34931412    -0.95052356    -0.88568752     0.11614397
O       4.29725219     5.13394571     2.71991891     0.95052356     0.88568752    -0.11614397
