# total energy = -19960.46447488 eV

CRYSTAL
PRIMVEC
        5.93400000     0.00000000     0.00000000
        0.00000000     9.29699974     0.00000000
        0.00000000     0.00000000     4.64899994
PRIMCOORD
24 1
Ti      4.39326800     6.81870398     2.36382298     0.73070393     2.37939385     0.38848612
Ti      4.44649498     2.41518502     2.39800698     0.36034718    -2.18171143    -0.90076653
Ti      1.48532201     7.01117300     2.26783700    -0.27091313     1.80680742    -0.19834500
Ti      1.46314700     2.36955899     2.33274101    -0.47158832    -1.68009955    -0.06695824
Ti      2.96086297     4.63887800     4.63777398    -1.30688657    -0.79273876    -0.00498177
Ti      3.00564799     0.02466500     4.58681601     0.15430481     0.68564688     0.55413541
Ti      5.91836102     4.71948202     0.02881100     1.31919521    -0.90431002    -0.25809977
Ti      0.01837901     9.20906398     0.00456198    -0.26366287     1.02848973     0.33271193
O       4.45001300     5.52021398     0.86111299    -0.19050879     0.38110345     0.29924129
O       4.44376299     0.89553899     0.83065699     0.20695820     0.06322705    -0.08944074
O       1.51699200     5.66048998     0.84474200    -0.09028458    -1.39593933    -0.56790805
O       1.60462402     0.91167001     0.84256099    -1.39172272     0.25210704     0.18883243
O       4.37144500     8.27617000     3.75247700     1.05346929    -0.43366685    -0.42611217
O       4.55470998     3.67196702     3.74449701    -0.66089897     1.70727818     1.49458771
O       1.40802800     8.33370897     3.76808101     0.49685559    -0.25441667    -0.41886140
O       1.47855701     3.72236301     3.70548802     0.37887405     0.93612332     1.61945698
O       2.92102201     6.04460001     3.29178899     0.66506313    -0.26025796    -0.65358521
O       3.05684398     1.45160702     3.16789098    -0.76940522    -0.80548192     0.67032798
O       0.06937699     6.06197798     3.13115502    -1.36255020    -1.29474273     1.04606219
O       0.01282498     1.36849100     3.18002099    -0.00066437     0.02571027     0.12765840
O       2.92270702     7.89018001     1.32157002     0.59688208    -1.36496369     1.58672888
O       2.91437602     3.23534700     1.54523498     0.92324364     1.84315718    -2.10783692
O       5.92069299     7.96299200     1.57769397    -0.32535574    -0.37873495    -1.13562712
O       0.01212800     3.31482397     1.52766799     0.21854436     0.63802000    -1.47970667
