# total energy = -4989.71592255 eV

CRYSTAL
PRIMVEC
        3.24717631     0.00000000     0.00000000
        0.00000000     4.16277697     0.00000000
        0.00000000    -0.00006113     4.67202810
PRIMCOORD
6 1
Ti      1.62358816     2.08135787     2.33601416     0.00000000     0.00000000     0.00000000
Ti      0.00000000     0.00000000     0.00000000     0.00000000     0.00000000     0.00000000
O       1.62358816     0.81125199     0.91050952     0.00000000     0.03037837    -0.09003390
O       1.62358816     3.35146374     3.76151879     0.00000000    -0.03037837     0.09003390
O       0.00000000     1.27008114     3.24652452     0.00000000    -0.03005544    -0.09011309
O       0.00000000     2.89263460     1.42550379     0.00000000     0.03005544     0.09011309
