# total energy = -4982.30088542 eV

CRYSTAL
PRIMVEC
        2.99695813     0.00000000     0.00000000
        2.20978102     4.14333873     0.00000000
       -0.00001421    -0.00006402     4.85928473
PRIMCOORD
6 1
Ti      2.60336223     2.07163725     2.42964247     0.00000000     0.00000000     0.00000000
Ti      0.00000000     0.00000000     0.00000000     0.00000000     0.00000000     0.00000000
O       1.92912995     0.80746318     0.94700308    -5.70535819     2.62059273     3.33867922
O       3.27759453     3.33581143     3.91228191     5.70535819    -2.62059273    -3.33867922
O       0.67422625     1.26414834     3.37664649     5.70520675    -2.62108021     3.33896307
O       1.53554023     2.87912634     1.48263845    -5.70520675     2.62108021    -3.33896307
