# total energy = -19960.45850674 eV

CRYSTAL
PRIMVEC
        5.93400000     0.00000000     0.00000000
        0.00000000     9.29699974     0.00000000
        0.00000000     0.00000000     4.64899994
PRIMCOORD
24 1
Ti      4.48399602     7.05652000     2.25810500     0.38838507    -0.34903664     0.56998190
Ti      4.41826300     2.25945499     2.30597099     0.69179541     0.69527438     0.33801637
Ti      1.53517998     6.90791798     2.32584302    -0.51437406     0.16873385     0.96213878
Ti      1.46296898     2.23175499     2.26318198    -0.50687389     1.19503017     0.97355423
Ti      2.97088898     4.60411598     0.06123300     0.57574297     1.25233031    -0.00061552
Ti      2.92179498     0.06839902     0.09762997     0.79237701    -2.27583826    -1.34881665
Ti      5.92206298     4.60182602     4.58687401    -0.53450529     1.39476228    -0.06878089
Ti      5.93270003     0.03522400     0.01369701    -0.61742443    -2.63052156    -1.16179813
O       4.45814301     5.51796201     0.96981097     0.29266827    -0.32152274    -0.46912469
O       4.43527102     0.85191499     0.99604901    -0.50680833    -0.16267993    -0.62983078
O       1.49973500     5.59395298     0.95242798    -0.11908197    -0.99509520    -0.37687347
O       1.48292500     0.93614398     0.92349198     0.26230276    -0.01647152    -0.12118668
O       4.48418801     8.36452900     3.67549500    -0.44562428     2.11721631     1.65693365
O       4.43305599     3.82895100     3.69389798     0.38343750    -0.54618453    -0.04044501
O       1.40034398     8.46801300     3.66381902     0.93212886     0.67151352     1.51580986
O       1.55446600     3.82428699     3.73002100    -0.80190372    -0.52599905    -0.45815301
O       3.06873300     6.19790901     3.19538999    -1.20352664    -1.03228853     0.90030142
O       2.95850702     1.46038501     3.18336597    -0.50542919    -0.68816964     1.10111030
O       5.85088398     6.23134401     3.38849100     1.12070700    -1.43957842    -0.58355347
O       0.02993302     1.37973199     3.28921502     0.07427020     1.40424579    -0.68841955
O       2.91369100     7.92755702     1.42791702     0.11253620     0.80609436    -1.05672353
O       3.04740298     3.21449498     1.41770702    -0.99374562    -0.03684135    -0.32269336
O       0.05779002     7.91602000     1.45828799     0.01295656     0.39933746    -0.96741083
O       5.85009498     3.04125997     1.30328001     1.10999038     0.91568896     0.27657881
