# total energy = -19961.09194464 eV

CRYSTAL
PRIMVEC
        7.60600008     0.00000000     0.00000000
        0.00000000     7.60600008     0.00000000
       -1.89786986    -1.89786986     4.85670466
PRIMCOORD
24 1
Ti      3.82224902     6.75080398     1.10907799     0.57618469     0.30922489    -0.28670048
Ti      3.77476801     2.91127801     1.23509700     1.17569289    -0.69094515    -0.89701914
Ti     -0.07485699     6.64384900     1.20492702    -0.28719876    -0.94661574     0.73637270
Ti     -0.02502500     2.72993399     1.26800998    -0.66238661     0.77082884     0.33241882
Ti      5.60527123     2.80697823     3.72072182     0.84531193    -0.76311193    -0.23623767
Ti      5.65790124    -0.96971779     3.65869483     0.43927957     0.53689488    -0.14916646
Ti      1.92390020     2.86989920     3.60014280    -0.61777024    -0.19661207     0.73791819
Ti      1.92819320    -0.89163176     3.46222884    -0.02267277     0.21941751     1.46633024
O       3.98210299     4.81014400     0.84459801    -0.54005373    -0.01386905    -0.40368443
O       3.96278300     1.09351198     0.71760700    -0.80682250    -1.16676936    -0.56664641
O      -0.16432800     4.69872700     0.87897998     0.27091647     0.24673755    -0.27371820
O      -0.10293402     0.84650400     0.91544500     0.40457146     1.13309227    -0.78219646
O       5.59779925     4.69664225     4.13001179     0.04795778     0.18580572    -0.50138587
O       5.84068420     0.88023222     4.16338584    -0.24444824    -0.16037416     0.06467998
O       2.16490821     4.81615021     3.98891080    -0.69205124    -0.19600375     0.03361590
O       1.92161421     1.02886721     4.05037781    -0.36699709    -0.80717474     0.06878912
O       3.81876423     2.52280121     3.28495880     0.26011963     1.12458911    -0.67326238
O       3.86128421    -0.93414279     3.11015483    -1.64349269     0.13996577     0.80393926
O       0.03964622     2.77951324     3.23340180    -0.05320849     0.50898040     0.60383820
O       0.00933421    -1.01218479     3.31160282     0.33629476    -0.30767889    -0.96028296
O       5.61283201    -0.65773499     1.74586301     2.17771979    -1.02928728    -0.58971230
O       5.73304902     2.76383700     1.70709199    -0.61127846     0.44547233     0.34378876
O       1.91915898     6.68967898     1.44841502    -0.41730254     0.09646603     1.07305005
O       1.91670498     2.76982099     1.64025601     0.43163413     0.56096632     0.05527103
