# total energy = -19517.38904376 eV

CRYSTAL
PRIMVEC
        5.93400000     0.00000000     0.00000000
        0.00000000     9.29699974     0.00000000
        0.00000000     0.00000000     4.64899994
PRIMCOORD
23 1
Ti      4.47540298     6.95525600     2.29480101     1.81225919    -0.00085129     0.03490325
Ti      4.50858303     2.36891202     2.34512100    -0.23323822     0.24504833    -0.60994483
Ti      1.52016002     7.06331098     2.27620001    -1.29921722    -0.50382739    -0.58014856
Ti      1.51196201     2.29897902     2.36740498    -0.31364282     0.71068120    -0.34178613
Ti      2.98446798     4.61490299     0.18978900    -1.38394256    -0.07338008     0.76109953
Ti      2.99358301     0.11794699     4.57520999    -0.17386834    -1.13981622     0.19530184
Ti      5.90109999     4.48946099     4.62698501     0.97725405     1.44764912    -0.78003828
Ti      5.93369297     0.07354198     4.59059502    -0.05465422    -0.70609487     0.28361952
O       4.49548499     5.42564101     0.97555001    -0.82495932     0.97768471    -0.06276631
O       4.43663101     0.96099599     0.84717103    -0.54431148     0.06094699     0.25833709
O       1.45124099     5.51167200     1.01665703     0.52878021     0.02000602    -0.77478063
O       1.50481701     0.92690502     0.95614799    -0.08318525    -0.15724410    -0.67674623
O       4.43300202     8.47927802     3.52645402    -0.38235429    -0.10745133     1.05785302
O       4.31942603     3.61929002     3.80040702     0.66251902     0.74223816    -0.05114517
O       1.33571900     8.45582499     3.72950198     1.29126171    -0.56781369    -0.74369135
O       1.46870399     3.60661400     3.86621101     0.15355662     0.55130026    -0.44919194
O       2.96813202     1.52569898     3.21085202     0.21496024    -1.44400972     0.57141606
O       5.89000399     5.96680598     3.25450401    -0.46943759     0.41203538    -0.00123773
O       5.91339500     1.38289600     3.12351597    -0.13320942     0.14590707     0.71197832
O       2.87798397     7.75039102     1.16899599     0.68412530     0.11681863     1.25571311
O       2.89262800     3.35547003     1.50731298     0.54532784    -0.88192496     0.22173356
O       0.01807500     7.76741899     1.45309998    -0.62099569     1.27654985    -1.20470266
O       0.01128597     3.30318102     1.43629998    -0.35302802    -1.12445156     0.92422451
