# total energy = -39035.67248937 eV

CRYSTAL
PRIMVEC
        7.60600008     0.00000000     0.00000000
        0.00000000     7.60600008     0.00000000
       -3.79573973    -3.79573973     9.71340985
PRIMCOORD
46 1
Ti      2.03479845     4.63009445     6.17727263    -0.61304198     1.19162448     0.15933441
Ti      3.69591198     6.73731499     1.37587397    -1.17442482     1.79990581    -1.42561193
Ti      1.99610644     0.69797643     6.08361460     0.67568513     1.07079133     0.35951955
Ti      3.79161802     2.93216199     1.09878401     0.38988351    -1.85556584     0.67451142
Ti     -1.86213453     4.69273248     6.10173760     0.29205506    -0.07037472    -0.48721035
Ti     -0.19295999     6.66397001     1.35473101     1.19073797     0.35487845    -1.54374722
Ti     -1.73022355     0.94927747     5.91258362    -0.80195231     0.35673298     0.81727866
Ti      0.06645101     2.99095898     1.16484301    -0.73828355    -0.42746534    -0.04599757
Ti      3.93469046     0.95670643     8.37573761     0.14801152     0.64664348     0.21049398
Ti      5.63868502     2.81885302     3.43829701    -0.74218700    -1.63774216     0.10495196
Ti      3.76868147    -2.81621454     8.57633865    -0.43525707    -0.17796154    -0.26613242
Ti      5.58848203    -1.07920303     3.64827401    -0.34594540     0.56114116     0.99989391
Ti      0.15787146     1.10832143     8.35766160    -0.71726786    -0.77141660     2.49018247
Ti      1.84756199     2.70666702     3.53889397     0.91695137     0.31295016     0.59210317
Ti     -0.05188456    -2.90164957     8.48060763     1.35393906     1.16970016     1.13896030
Ti      1.75581102    -1.03966798     3.69093401     0.59518232    -0.09137241     0.16225184
O       1.78970746    -1.04231657     5.64035865    -0.25835663    -0.58628990     0.75596940
O       3.58932203     1.00242300     1.00013902    -0.01836257     0.12141885    -1.56189279
O      -1.95615054     2.84800047     5.49376263     0.41969032     0.39955215     0.89225437
O      -0.24317901     4.84940498     0.95234400     0.63685452     0.14390367    -0.40602285
O      -1.69429352    -0.99493255     5.63430761    -0.23773766    -0.53296212    -0.42874987
O       0.04438400     1.00041599     0.69714599     0.19865482    -0.49086851     1.56763406
O       3.58513147     2.89712643     8.92057962     0.89533122    -0.55134474    -0.26848318
O       5.51100698     4.56460401     3.86226901     0.19739163     2.70773156     0.28464591
O       3.96420542    -0.91064557     8.97277464     0.46068169     1.61000020    -0.47227429
O       5.56965998     0.89927498     4.09065598     0.27291293    -0.57802637    -0.59138840
O       0.02785145     2.91850646     9.12410060     0.37051899    -1.11549717    -1.22773384
O       2.00282498     4.58617999     4.30951797    -0.29386177    -0.89225977    -1.58884438
O       0.01006146    -0.81327458     9.00054063    -0.20257138     0.57028015    -0.77177758
O       1.98863599     0.84432802     4.16343902    -0.54572379     0.98432176    -0.20735209
O       2.07078446     0.83793344     8.15503164    -0.50868395     0.07841662    -0.71946024
O       3.71602002     2.54957297     3.03653998     1.04221094     0.79762720     1.33663630
O       1.85848447    -2.46173553     8.13693563     0.86940754    -1.52592767    -0.02817673
O       3.69919198    -0.88600401     3.18555402     0.10865666    -1.07193701     2.54230621
O      -1.68518755     0.96825847     7.99768661    -2.07772261     0.22090541     0.48895793
O      -0.09724002     2.54662398     3.18776402     1.45995776     0.58856867    -0.50147380
O      -1.81510257    -2.70573953     8.01756764    -1.37213759    -0.63594563     0.51851071
O      -0.09940902    -0.95781500     3.35424302    -0.33406433    -0.28649427    -0.35800619
O       3.87070647     4.99428747     6.52396062    -0.52894682    -1.12701392    -0.11560893
O       5.56969401     6.88438800     1.74411302     0.98370135    -0.48574173    -0.47510404
O       3.90040946     1.01153544     6.41734865    -0.21103391    -0.28191617     0.63320664
O       5.74991601     2.83557402     1.33644302    -1.10722336     0.55702508     1.55736790
O       0.04471347     4.67084544     6.53157463     0.25893075    -0.86615998    -0.18686425
O       1.75650101     6.64413301     1.76329797    -0.10704252    -0.49126138    -0.82038893
O       0.14705344     1.27660043     6.59202964     1.02255356    -0.06906628    -3.35412590
O       1.95033901     3.23731602     1.64401602    -1.38807201     0.37649192    -0.43454333
