# total energy = -19518.00157786 eV

CRYSTAL
PRIMVEC
        7.60600008     0.00000000     0.00000000
        0.00000000     7.60600008     0.00000000
       -1.89786986    -1.89786986     4.85670466
PRIMCOORD
23 1
Ti      3.74892897     6.74306000     1.33969698     1.88670371     0.49158971    -1.58008000
Ti      3.82593601     2.98296898     1.15009002    -0.27585865    -0.38818170     1.46007089
Ti      0.06242000     6.59566101     1.22586900    -1.48126013    -0.64183449     0.19149763
Ti     -0.02749901     2.80739803     0.93630601     0.49996379     0.69701218     1.76738725
Ti      5.68860125     2.76160022     3.61208681    -1.33910379    -0.17592677     0.24109295
Ti      5.62682224    -1.13136080     3.60694881     1.36014056    -0.07899563    -0.64378673
Ti      2.09418420     2.99058924     3.67271179     0.52514956     0.46001141    -0.74265185
Ti      1.86274123    -0.84178178     3.71642479    -0.52274018    -0.55808309     0.48399312
O       3.92194401     4.82258897     1.08744501    -0.26651628    -0.62224731    -1.40219791
O       3.51695000     1.08160300     0.81117401     0.70510062    -0.45258349    -0.13991897
O       7.31590601     4.73104703     0.73502498     1.45784020    -0.83088623     0.43199203
O      -0.08602300     0.91729998     0.72016399     0.65187619    -1.50848967     0.04368306
O       5.53344622     4.57829721     4.03960281     1.10837444     2.24060514    -0.40412203
O       5.92201424     0.89088324     3.98090679     0.23541029    -0.13031358    -0.70346977
O       1.99891425     4.89430223     4.09219880    -0.05632852    -1.69021608     0.52968344
O       1.74944824     1.12088420     3.99608581    -0.16613292    -0.04637655     0.93276289
O       3.86531125     2.56147523     3.35382979    -0.74920843     0.81007469    -1.22680927
O       3.80826525    -0.87337477     3.26986280    -0.02879020     0.61487235     0.38224373
O       0.06434425    -1.04727480     3.23748181    -0.63479686     0.07197857    -0.69044841
O       5.74323102     6.51945700     1.58182399    -0.15250298     1.09854383     1.31688945
O       5.81628003     2.67003700     1.70169301    -0.14188072     0.40781028    -1.01398947
O       2.00817501     6.46616800     1.61265402    -2.62146227     0.43122815     0.07235858
O       1.73759001     3.04650698     1.73306401     0.00602307    -0.19959147     0.69381990
