# total energy = -4987.26553960 eV

CRYSTAL
PRIMVEC
        3.14743487     0.00000000     0.00000000
        1.67475596     4.63847629     0.00000000
       -0.00001088    -0.00006534     5.01120351
PRIMCOORD
6 1
Ti      2.41108996     2.31920542     2.50560176     0.00000000     0.00000000     0.00000000
Ti      0.00000000     0.00000000     0.00000000     0.00000000     0.00000000     0.00000000
O       1.90010055     0.90395797     0.97660977    -0.61594553     0.50474270     0.22380973
O       2.92207938     3.73445287     4.03459380     0.61594553    -0.50474270    -0.22380973
O       0.51098484     1.41522104     3.48221252     0.61602832    -0.50341602     0.22276072
O       1.16376033     3.22318978     1.52899104    -0.61602832     0.50341602    -0.22276072
