# total energy = -19513.46177031 eV

CRYSTAL
PRIMVEC
        5.17600016     0.00000000     0.00000000
        0.00000000     5.50899976     0.00000000
        0.00000000     0.00000000     9.26300011
PRIMCOORD
23 1
Ti      2.01742201     2.97310999     3.26561800    -1.15747508    -0.40425701     1.34688729
Ti      3.14918001     2.37274803     5.78258599     2.72538965     1.67813909     0.06554053
Ti      4.49291499     2.00295103     1.47807398     1.43995869    -2.23275453    -0.27796387
Ti      0.99237599     3.32427900     7.86494498    -1.34914163     0.98437626    -1.17512288
Ti      2.04574898     0.10242400     1.34868199    -0.66078764    -0.07859685    -2.19966107
Ti      3.09720099     0.18300299     7.68788301     2.44944101    -3.08361515     1.42873633
Ti      0.75521103     0.63743300     6.14340798    -3.07114838    -0.24030336    -1.96056073
Ti      4.55616601     4.79542001     3.24579899     0.75557294    -1.69101775     4.60116565
O       1.70207698     1.78465700     4.85922302    -0.72898772     0.15837770    -1.41429932
O       3.37605502     3.53246500     4.35220797     0.79335171     1.02273791     0.34405718
O       0.22543401     2.48801098     0.12653300     1.42752380     0.81701975    -1.66024472
O       3.59147001     0.50421098     0.15858098    -0.74804552     1.40498781     0.09348097
O       1.75736002     4.55622401     9.07915398    -0.19496734     0.95895987    -0.59149407
O       4.20248500     0.92499098     5.31011997    -2.02936785    -0.86942734    -1.62586340
O       0.63606899     4.92164101     4.60185602     0.65844357    -0.56746402    -1.03467143
O       0.20056500     2.91588502     2.83263798    -0.54498074     0.69058931    -0.26914344
O       4.92672899     2.31298698     6.79920301     0.39086439     1.29929024     1.41053574
O       2.87127702     1.65889802     2.24882599    -2.56929329    -0.39788016     0.93215765
O       2.49169898     4.11749400     6.68039102    -1.07027762     1.26796391     0.93939403
O       0.09859900     0.07367899     1.84480498     1.97362168     2.30512622    -1.19709888
O       4.90223100     5.04313799     7.26056302     0.69375305    -0.58039127     1.14167821
O       2.10222600     1.77865898     7.35227298     0.26695234    -1.95745124     0.71809961
O       2.88966101     4.28755500     2.14181200     0.54960050    -0.48440913     0.38439035
