# total energy = -19910.69980906 eV

CRYSTAL
PRIMVEC
        7.10113264     0.00000000     0.00000000
        0.00002325     3.23903671     0.00000000
        0.00000000     0.00000000    10.80736887
PRIMCOORD
24 1
Ti      2.57383270     1.91945017     4.00945677    -0.70199138     0.56938078     0.23989558
Ti      4.52732288     1.31958659     6.79791225     0.70199138    -0.56938078    -0.23989558
Ti      6.12427749     1.31958770     1.39418452    -0.70148436    -0.56906402    -0.23881675
Ti      0.97687810     1.91944917     9.41318461     0.70148436     0.56906402     0.23881675
Ti      2.57382123     0.29993187     1.39422787    -0.70249198     0.56998293    -0.23986524
Ti      4.52733435     2.93910495     9.41314126     0.70249198    -0.56998293     0.23986524
Ti      0.97686663     0.29993066     6.79786890     0.70167205     0.56981735    -0.23837040
Ti      6.12428896     2.93910616     4.00950013    -0.70167205    -0.56981735     0.23837040
O       2.24756142     1.14051988     5.51491765     5.59968530    -0.93835607     2.12289819
O       4.85359416     2.09851683     5.29245137    -5.59968530     0.93835607    -2.12289819
O       1.30306263     1.14053294     0.11126791    -5.59853987    -0.93980180     2.12617635
O       5.79809301     2.09850382    10.69610080     5.59853987     0.93980180    -2.12617635
O       4.85358274     0.47899848     0.11123285    -5.60091506     0.93929581     2.12400222
O       2.24757284     2.76003829    10.69613586     5.60091506    -0.93929581    -2.12400222
O       5.79808159     0.47898541     5.51495271     5.59869902     0.93999952     2.12453933
O       1.30307394     2.76005135     5.29241632    -5.59869902    -0.93999952    -2.12453933
O       0.25801461     1.97016573     2.91933998     1.17625391    -0.60025794     0.63105334
O       6.84314098     1.26887099     7.88802905    -1.17625391     0.60025794    -0.63105334
O       3.80858996     1.26884081     2.48437889     1.17625931     0.60090071    -0.62823412
O       3.29256562     1.97019595     8.32298998    -1.17625931    -0.60090071     0.62823412
O       0.25800319     0.35064737     2.48434441     1.17622228    -0.60025999    -0.62651174
O       6.84315240     2.88838939     8.32302446    -1.17622228     0.60025999     0.62651174
O       3.29255420     0.35067755     7.88806348    -1.17546484    -0.60038444    -0.63132690
O       3.80860138     2.88835922     2.91930549     1.17546484     0.60038444     0.63132690
