# total energy = -19516.03544973 eV

CRYSTAL
PRIMVEC
        5.17600016     0.00000000     0.00000000
        0.00000000     5.50899976     0.00000000
        0.00000000     0.00000000     9.26300011
PRIMCOORD
23 1
Ti      1.74545200     3.26493298     3.39763302     2.24605845    -0.69157584     2.37713385
Ti      3.34057702     2.23248600     5.82471500    -0.19665475     0.75198676    -1.69533695
Ti      4.56578598     1.94574998     1.45424301    -2.92864571     2.23758280    -2.39039920
Ti      0.76697300     3.48788298     7.78949399     0.72697095    -1.56447803     1.99598463
Ti      2.06489302     0.35238098     1.32345098     2.37372097    -1.87494759    -0.84586754
Ti      3.19250000     5.12298999     7.80541497     0.05828359    -0.62143869     3.38012568
Ti      0.70532099     0.53739701     5.95231499     0.27833770     0.86497213    -1.93797487
Ti      4.58055902     4.98678701     3.34172899    -1.93694026    -1.27690209     2.77852794
O       1.52710601     1.85448802     4.96476599     1.92194249     1.60980557    -1.71120914
O       3.42141901     3.55794599     4.47564301     0.82706994    -0.31600567     0.67447466
O       4.97162000     3.08262602     9.23637402    -0.85815331    -1.22897183     1.18433514
O       3.51906099     0.73579398     0.08292499     0.23614331     0.36352790     1.13454777
O       1.88396399     4.28897002     9.21986301     0.53568080     2.14095043    -1.46395300
O       4.38325898     0.85781400     4.92881998    -2.14105584    -0.76405630    -1.73024354
O       1.03938402     4.77992501     4.41493199    -0.75485894    -0.64323317     0.29548748
O       0.12640002     3.35972101     2.54813901    -0.58863449    -0.38595050    -0.47002663
O       5.00661301     2.09620799     6.88850098    -0.43927519    -0.44056049    -0.12425915
O       2.85491798     1.85805399     2.37527098    -0.41330190    -0.39304649    -0.76312118
O       2.56049001     3.61176602     6.94253702    -0.77205551    -0.72111063    -0.13867199
O       0.33838297     0.60611602     2.20015300     1.39529424    -0.15744130    -0.39231115
O       4.92860302     4.77365998     7.08409002    -0.36121159     1.12800482    -0.06551945
O       2.28367897     0.91718102     7.04973399    -0.14241988     0.49350775    -0.30847362
O       2.73635000     4.42975599     2.28401998     0.93370494     1.48938071     0.21675025
