# total energy = -19071.05376235 eV

CRYSTAL
PRIMVEC
        7.60600008     0.00000000     0.00000000
        0.00000000     7.60600008     0.00000000
       -1.89786986    -1.89786986     4.85670466
PRIMCOORD
22 1
Ti      3.79787898     6.58986901     1.44766798     3.41363745     0.94861375    -2.44631018
Ti      3.55961401     2.79204300     0.90590398    -0.69880707    -0.62154874     1.25476643
Ti     -0.25113001     6.53137000     1.12139999     1.29206081     0.16846131     2.98368019
Ti     -0.08163501     2.96195202     1.18852200    -0.11277017     1.29708912     0.25307583
Ti      5.49226125     2.85410824     3.41106481     0.58653930    -0.46041301     0.81454327
Ti     -1.18393276    -0.45188980     3.97695579    -0.74715797    -0.11383101    -0.60653606
Ti      1.84305821     2.89814923     3.73902780     0.58442688    -0.06258350    -1.13528645
Ti      1.86885322    -1.16929180     3.73829780    -0.77109804     2.71733746     0.81931601
O       4.00988702     4.68625302     0.59698100    -0.88518718     0.78757778     3.48294182
O       4.05737899     0.96696501     0.74246098    -0.13620835    -1.73793217     3.18719414
O       0.50276199     4.63181301     0.79901298    -0.39364041     0.46711408     1.07563298
O      -0.21610800     0.94570600     0.61198201    -0.32165027    -1.87971391     1.16786671
O       5.09798721     4.31335425     4.37113082    -1.93544105     1.96136832    -2.52992351
O       5.31604321     1.11350022     3.89819183     0.14479584    -1.32825810    -0.23567152
O       2.11256724     4.80183120     4.35702380    -0.22431778    -2.66639746    -1.01771423
O       2.45522321     0.78054623     4.19773082    -0.36718401     0.58891397    -3.85197753
O       3.47219023     2.86569420     2.81764279    -0.07455842     0.29712862     0.39456189
O       0.05979825     3.11339721     3.23464679     0.23196604    -1.04323269    -0.96125895
O       5.80445302     6.38105402     2.25629500    -0.20371732     0.71061153    -0.75488105
O       5.71193998     3.26600700     1.71801098     0.17478443    -0.69925727    -1.70962457
O       2.11242700     6.56778602     1.92444700    -1.52227181     0.16753006    -0.82565198
O       1.70543398     2.40926898     0.40918102     1.96579884     0.50142161     0.64125702
