# total energy = -4990.05557847 eV

CRYSTAL
PRIMVEC
        4.09313805     0.00000000     0.00000000
       -0.00000827     3.70331579     0.00000000
       -2.04659790    -1.85169507     4.98747337
PRIMCOORD
6 1
Ti     -0.00017892     2.77762599     1.24686810    -0.00089577    -0.00141436     2.06368078
Ti      2.04671048    -0.92600516     3.74060467     0.00089577     0.00141436    -2.06368078
O       0.00004159     0.92582197     0.81241857    -0.00004448     0.00040546    -0.36759101
O       2.04648980     0.92579875     4.17505431     0.00004448    -0.00040546     0.36759101
O      -0.00002099    -0.92580903     3.30615515    -0.00143570    -0.00027305    -0.62019196
O       2.04655238     2.77742969     1.68131773     0.00143570     0.00027305     0.62019196
