# total energy = -4990.13673074 eV

CRYSTAL
PRIMVEC
        3.05285016     0.00000000     0.00000000
        0.00000000     4.32780086     0.00000000
        0.00000000    -0.00005920     4.56699702
PRIMCOORD
6 1
Ti      1.52642508     2.16387067     2.28349851     0.00000000     0.00000000     0.00000000
Ti      0.00000000     0.00000000     0.00000000     0.00000000     0.00000000     0.00000000
O       1.52642508     0.84341305     0.89004044     0.00000000     0.14301201     0.03562316
O       1.52642508     3.48432825     3.67695652     0.00000000    -0.14301201    -0.03562316
O       0.00000000     1.32043365     3.17353988     0.00000000    -0.14307243     0.03559257
O       0.00000000     3.00730770     1.39345709     0.00000000     0.14307243    -0.03559257
