# total energy = -19952.72934751 eV

CRYSTAL
PRIMVEC
        5.08129517     0.00000000     0.00000000
        0.00002529     4.89298360     0.00000000
        0.00000000     0.00000000     8.68304159
PRIMCOORD
24 1
Ti      1.84174012     2.89957751     3.22134658    -0.40848339     1.27558492    -1.88478849
Ti      3.23958034     1.99340600     5.46169531     0.40848339    -1.27558492     1.88478849
Ti      4.38229915     1.99340768     1.12013968    -0.40704666    -1.27637064     1.87405414
Ti      0.69902136     2.89957607     7.56290235     0.40704666     1.27637064    -1.87405414
Ti      1.84172752     0.45308580     1.12017452    -0.40871839     1.27580346     1.87264980
Ti      3.23959299     4.43989785     7.56286752     0.40871839    -1.27580346    -1.87264980
Ti      0.69900872     0.45308402     5.46166053     0.40689780     1.27470200     1.88550095
Ti      4.38231174     4.43989968     3.22138141    -0.40689780    -1.27470200    -1.88550095
O       1.60827092     1.72290265     4.43088977    -0.61945072    -1.54796306     0.78232605
O       3.47304958     3.17008086     4.25215211     0.61945072     1.54796306    -0.78232605
O       0.93242425     1.72292243     0.08939678     0.61892261    -1.54901952     0.78355915
O       4.14889631     3.17006112     8.59364490    -0.61892261     1.54901952    -0.78355915
O       3.47303694     0.72358901     0.08936863     0.61929413     1.54846545     0.78298785
O       1.60828357     4.16939450     8.59367306    -0.61929413    -1.54846545    -0.78298785
O       4.14888367     0.72356927     4.43091797    -0.61916635     1.54855055     0.78284310
O       0.93243674     4.16941428     4.25212396     0.61916635    -1.54855055    -0.78284310
O       0.18463067     2.97619001     2.34550621     0.61015617    -0.12953351     0.20810851
O       4.89668983     1.91679354     6.33753567    -0.61015617     0.12953351    -0.20810851
O       2.72528276     1.91674800     1.99604234     0.61047833     0.12904680    -0.20895260
O       2.35603770     2.97623555     6.68699945    -0.61047833    -0.12904680     0.20895260
O       0.18461803     0.52969816     1.99601458     0.61009112    -0.12914553    -0.20923722
O       4.89670243     4.36328539     6.68702716    -0.61009112     0.12914553     0.20923722
O       2.35602510     0.52974370     6.33756338    -0.61034695    -0.12943581    -0.20808897
O       2.72529540     4.36323980     2.34547851     0.61034695     0.12943581     0.20808897
