# total energy = -19949.27421382 eV

CRYSTAL
PRIMVEC
        5.49086150     0.00000000     0.00000000
        1.98462643     5.49662295     0.00000000
        0.00000000     0.00000000     9.98614027
PRIMCOORD
24 1
Ti      3.16626107     3.25729358     3.70478683     1.17357944    -2.80722866     1.06106484
Ti      4.30922706     2.23932922     6.28135355    -1.17357944     2.80722866    -1.06106484
Ti      5.54405288     2.23933109     1.28824349    -2.63789780    -0.45942442     0.81525752
Ti      1.93143528     3.25729188     8.69789700     2.63789780     0.45942442    -0.81525752
Ti      2.17394799     0.50898225     1.28828352     1.17357944    -2.80722866    -1.06106484
Ti      5.30154016     4.98764065     8.69785697    -1.17357944     2.80722866     1.06106484
Ti      0.93912209     0.50898023     6.28131351     2.63789780     0.45942442     0.81525752
Ti      6.53636607     4.98764273     3.70482687    -2.63789780    -0.45942442    -0.81525752
O       2.43671309     1.93545432     5.09585094     1.08899552     1.68531401    -0.94509879
O       5.03877504     3.56116848     4.89028944    -1.08899552    -1.68531401     0.94509879
O       1.70639927     1.93547649     0.10281294     0.24588343    -0.64768067     0.83410911
O       5.76908892     3.56114635     9.88332716    -0.24588343     0.64768067    -0.83410911
O       4.04646194     0.81285704     0.10278053    -1.08899552    -1.68531401    -0.94509879
O       3.42902618     4.68376575     9.88335957     1.08899552     1.68531401     0.94509879
O       4.77677581     0.81283486     5.09588335    -0.24588343     0.64768067     0.83410911
O       2.69871226     4.68378794     4.89025703     0.24588343    -0.64768067    -0.83410911
O       1.40665796     3.34335757     2.69750562     0.34549083     1.07327964     0.97079569
O       6.06883017     2.15326522     7.28863476    -0.34549083    -1.07327964    -0.97079569
O       3.72238308     2.15321402     2.29559631     1.33531578     0.62893140    -0.19024988
O       3.75310505     3.34340878     7.69054390    -1.33531578    -0.62893140     0.19024988
O       0.41434486     0.59504614     2.29556440     0.34549083     1.07327964    -0.97079569
O       7.06114327     4.90157666     7.69057581    -0.34549083    -1.07327964     0.97079569
O       2.76079195     0.59509734     7.28866655    -1.33531578    -0.62893140    -0.19024988
O       4.71469618     4.90152546     2.69747377     1.33531578     0.62893140     0.19024988
