# total energy = -19517.91637776 eV

CRYSTAL
PRIMVEC
        5.93400000     0.00000000     0.00000000
        0.00000000     9.29699974     0.00000000
        0.00000000     0.00000000     4.64899994
PRIMCOORD
23 1
Ti      4.46594499     6.98637200     2.20399298    -0.31899740     1.17071806    -0.24972620
Ti      4.47735898     2.28627898     2.33254998     0.96741880     0.46483274    -0.17077813
Ti      1.41304301     7.02637197     2.32891601     0.50309643     0.51535237    -0.46205055
Ti      1.49778498     2.30835800     2.38183702    -0.85367393     0.71096762    -0.50409479
Ti      2.94961499     4.52219902     0.11291801    -0.16205155    -0.19812234     0.21545544
Ti      2.93661898     0.10993001     4.64689498     0.79047156    -1.44144633    -0.02366676
Ti      5.91742501     4.66971401     0.01151299     0.34361264    -0.46024229     0.07487749
Ti      5.91774902     9.29641802     4.62734802    -0.54946578    -0.37076684    -0.67163642
O       4.39549298     5.51682100     0.93441198    -0.18099493     0.89376773    -0.05953443
O       4.48480201     0.91395102     0.91230100     0.10732431     0.12880332     0.24841211
O       1.48707301     5.53629398     0.91486200     0.69474884     0.42059355    -0.31143373
O       1.46453598     0.88411199     0.81034098     0.00504476     0.90450723     1.24226366
O       4.43842799     8.49523202     3.64851902     0.45692043    -0.81134276     0.15984580
O       4.54303998     3.65984400     3.93877100    -1.14697803    -0.09492619    -1.92718446
O       1.59898299     8.37017199     3.69367700    -0.85019008    -0.35548420    -0.03227250
O       1.42827702     3.63389902     3.80671698     0.87243142     1.04220040    -0.39685403
O       2.97722799     1.46091800     3.27123199     0.25168872     0.17565783    -0.47305539
O       5.89596100     6.06232501     3.06120398     0.13481764    -0.93571015     1.73449049
O       0.05077001     1.46560100     3.21890700    -0.26405291    -0.91271985     0.19035812
O       2.95860497     7.87881202     1.35397799     0.12890693    -0.66546474     0.65079633
O       3.03979802     3.25949802     1.40186901    -0.44845507    -0.87719233     1.09763109
O       0.02253300     7.87299498     1.42152699    -0.22673693     0.91858557    -1.12355784
O       0.05518901     3.24802699     1.39800602    -0.25488641    -0.22256814     0.79171495
