# total energy = -19517.71586963 eV

CRYSTAL
PRIMVEC
        5.17600016     0.00000000     0.00000000
        0.00000000     5.50899976     0.00000000
        0.00000000     0.00000000     9.26300011
PRIMCOORD
23 1
Ti      1.93452698     3.26434602     3.36266001    -1.50064806    -1.65416483     3.07136873
Ti      3.42252499     2.20283498     5.89917501    -0.11238373     1.16818630    -2.99813623
Ti      4.23404698     2.14378700     1.48378703     1.02728156    -0.59785498     0.04824934
Ti      0.82655401     3.35153898     7.85282597    -0.27700047     1.38882842     0.17531382
Ti      1.85884400     0.16039601     1.35630002    -0.08089336     0.78017918    -0.26383719
Ti      3.34038900     5.18851801     7.94142501     0.54531113    -1.15914861     1.13035250
Ti      0.79816799     0.56621802     5.80058600    -0.47637211     0.49351804    -2.88595844
Ti      4.50026499     4.87763500     3.40529799     0.71673178     0.43160019     2.52057472
O       1.63923300     2.05171302     4.79480002     0.29507328    -0.76017007     0.82682260
O       3.45650600     3.60342301     4.48901400     1.19041709     0.02761520     1.07868308
O       4.95320198     3.11297302     0.07448498    -0.35484965    -0.19022005    -0.00084152
O       3.53476200     0.82060998     0.14817497     0.06929820    -0.18391468     0.02262494
O       1.71511702     4.79444003     8.97217302     0.00054173     0.06437633     0.46517958
O       4.29474398     0.83715502     4.79162099    -0.04268984    -0.22471244    -0.26046339
O       1.06760103     4.87202201     4.38174998    -0.06310878    -0.44387824     0.35413694
O       0.16812803     3.31275801     2.70373702    -0.66140548    -0.61339834    -1.30521021
O       5.10281701     2.11286299     6.80702800     0.03683544    -0.59257316     0.33504083
O       2.48171901     1.78462599     2.20174397     0.21605656     0.64375408    -0.43039229
O       2.62297399     3.41495399     7.15336298     0.03281552     0.03894091     0.75135633
O       0.09369401     0.66048502     2.22859803     0.29088675     0.33242396    -1.82224664
O       5.13515101     4.79830799     7.00059998    -0.69327200    -0.09783822     1.01786798
O       2.57373500     0.71050502     6.72245601    -1.22473028    -0.12235782     0.33607108
O       2.88170700     4.44776400     2.32576799     1.06610446     1.27080858    -2.16655657
