# total energy = -19517.33297495 eV

CRYSTAL
PRIMVEC
        7.60600008     0.00000000     0.00000000
        0.00000000     7.60600008     0.00000000
       -1.89786986    -1.89786986     4.85670466
PRIMCOORD
23 1
Ti      3.82510298     6.63442499     1.28107600     0.15533171    -1.14649698    -0.28886792
Ti      3.62904498     2.73886597     1.33026302     1.31868433     0.82160146    -1.24621031
Ti     -0.03329202     6.71334601     1.17163902     0.22479369    -0.04722578    -0.92334262
Ti      0.00575200     2.94393401     1.06254098    -0.99467302     0.25562817     2.12733566
Ti      5.60732825     2.90434621     3.50511580     1.21781375     2.03414290     2.98538355
Ti      5.78526622    -0.77764375     3.65157883    -0.78532190    -2.79397950    -0.52393394
Ti      1.78478320     2.70780623     3.73997683     1.41669894    -0.44182264     1.23934880
Ti      1.88935022    -1.09325279     3.65603582     0.67954127     0.72105715    -0.23023955
O       3.94211301     4.70706498     0.82200198    -1.35415374    -0.83828844     0.67646212
O       4.00796198     0.91004300     0.74212098    -0.89129998    -0.43296236     0.64175993
O      -0.01335098     4.89597300     0.70307601     0.34924027    -0.55825201     0.83733919
O      -0.16801600     1.03530100     0.69281701     0.29362009    -1.05023998     0.39054429
O       5.94537620     4.81162823     3.77943980    -0.20791876    -0.30074205     1.63998853
O       5.80338620     1.02142523     4.11699382    -0.04463154     1.32328841    -2.19064164
O       1.84858521     4.55604922     3.96610379    -0.41287664     2.40221548     0.18578670
O       2.18497424     0.89309324     4.16780383    -1.05072103    -0.18145336    -0.26889147
O       3.85793520     2.84493924     3.18822684    -2.73536296    -0.28258645     0.39801077
O       3.90772120    -1.04282775     3.18031781    -1.07173467     0.30498591     0.14910656
O       0.01788921    -0.63810077     3.43046582     1.40518990    -0.80778975    -1.62918475
O       5.71225500     6.59586501     1.50269098     1.67672112     0.69548495     0.69221296
O       5.77193598     2.88287400     1.79090002     1.56909908    -0.13638653    -3.38815344
O       1.94822002     6.64928101     1.63143198    -1.25572802     0.16774192     0.47611295
O       1.70605502     2.66511099     1.82546799     0.49768811     0.29207974    -1.74992663
