# total energy = -19938.26076371 eV

CRYSTAL
PRIMVEC
        6.51886004     0.00000000     0.00000000
        0.00003031     5.67657709     0.00000000
        0.00000000     0.00000000    10.71379830
PRIMCOORD
24 1
Ti      2.36279118     3.36393421     3.97474289     0.31355875    -0.61801038     0.63106542
Ti      4.15609924     2.31264264     6.73905583    -0.31355875     0.61801038    -0.63106542
Ti      5.62210825     2.31264447     1.38211366     0.31402052     0.61812428    -0.63102763
Ti      0.89678216     3.36393256     9.33168518    -0.31402052    -0.61812428     0.63102763
Ti      2.36277626     0.52564579     1.38215662     0.31355875    -0.61801038    -0.63106542
Ti      4.15611415     5.15093125     9.33164222    -0.31355875     0.61801038     0.63106542
Ti      0.89676725     0.52564371     6.73901287    -0.31402052    -0.61812428    -0.63102763
Ti      5.62212316     5.15093326     3.97478585     0.31402052     0.61812428     0.63102763
O       2.06327105     1.99881921     5.46716943     0.95603961     1.17277058    -0.61369530
O       4.45561936     3.67775764     5.24662930    -0.95603961    -1.17277058     0.61369530
O       1.19621841     1.99884215     0.11030457    -0.95574291     1.17297781    -0.61451677
O       5.32267206     3.67773476    10.60349385     0.95574291    -1.17297781     0.61451677
O       4.45560444     0.83946903     0.11026979    -0.95603961    -1.17277058    -0.61369530
O       2.06328597     4.83710782    10.60352863     0.95603961     1.17277058     0.61369530
O       5.32265709     0.83944616     5.46720421     0.95574291    -1.17297781    -0.61451677
O       1.19623320     4.83713076     5.24659452    -0.95574291     1.17297781     0.61451677
O       0.23686359     3.45281600     2.89406431    -0.67865579     0.03047581     0.08870386
O       6.28202682     2.22376085     7.81973441     0.67865579    -0.03047581    -0.08870386
O       3.49630013     2.22370809     2.46286913    -0.67851463    -0.03028915    -0.08885299
O       3.02259028     3.45286876     8.25092941     0.67851463     0.03028915     0.08885299
O       0.23684861     0.61452739     2.46283490    -0.67865579     0.03047581    -0.08870386
O       6.28204180     5.06204946     8.25096364     0.67865579    -0.03047581     0.08870386
O       3.02257531     0.61458015     7.81976858     0.67851463     0.03028915    -0.08885299
O       3.49631510     5.06199670     2.89403008    -0.67851463    -0.03028915     0.08885299
