# total energy = -19958.49497553 eV

CRYSTAL
PRIMVEC
        5.93400000     0.00000000     0.00000000
        0.00000000     9.29699974     0.00000000
        0.00000000     0.00000000     4.64899994
PRIMCOORD
24 1
Ti      4.47550299     6.98075801     2.37879599     2.19659889    -0.39965294    -0.99189340
Ti      4.48150799     2.55627701     2.39634600    -1.79135097    -1.86163647     0.78291354
Ti      1.57476498     6.79968900     2.15153400    -2.76915498     0.76959317     0.59940896
Ti      1.48700199     2.50768002     2.43213500     1.20946589    -3.16357829    -1.38323216
Ti      2.96568500     4.67587501     4.63916000     0.04378487     1.17598703     1.05981606
Ti      3.01077503     9.04357702     4.63941501    -3.01680244     1.87696283     0.24080087
Ti      5.87281103     4.58292698     4.60512602     1.08755004     2.30825037     0.70326151
Ti      5.91831000     0.06549002     4.62283398     2.20177015     0.32992974     1.65717199
O       4.52815698     5.65492102     0.73809003    -1.02063140     0.01447892     0.70208960
O       4.33681998     0.56372803     0.86274799     1.62383351     3.03545889     2.08188754
O       1.50345702     5.62208002     0.69317103    -0.24968018     0.08573475     0.92081034
O       1.39571098     0.87900501     1.07596203    -0.62106228     0.32603426    -0.99056748
O       4.36735102     8.31659797     3.77291801     1.57088137    -1.59305817    -2.37361169
O       4.43578401     3.76546301     3.95353102    -0.66497494    -2.20171667    -2.60078366
O       1.45535502     8.27000799     3.96055601    -0.82322049     0.01705053    -2.03111029
O       1.52901501     3.81362698     3.69539000    -0.43861853     0.00613568     0.91913064
O       2.93888100     5.90534998     3.04552202     0.76965436    -0.01401612     0.60613265
O       3.09162299     1.61483502     3.20660702    -0.92846452    -0.68818610     0.13737564
O       5.84915400     5.91844097     3.16757199     0.12974588     0.64017896    -0.82794978
O       5.88350803     1.63427101     3.33970398     0.06381095    -0.66472812    -0.06717755
O       2.88566398     7.80844499     1.43265602     0.97666064    -0.04252863     0.41989421
O       2.92755301     3.44736001     1.52853298     0.48264741    -0.08153254    -0.83820874
O       0.02364703     7.76040099     1.33151902    -0.86159730    -0.02734035     1.54785019
O       5.89309899     3.33096801     1.44680701     0.82915382     0.15217928    -0.27400951
