# total energy = -19917.45210271 eV

CRYSTAL
PRIMVEC
        7.51519276     0.00000000     0.00000000
        0.00002958     5.33229173     0.00000000
        0.00000000     0.00000000    11.67581823
PRIMCOORD
24 1
Ti      2.72391356     3.15991112     4.33164529     0.57406533    -0.54402069     1.45741803
Ti      4.79130891     2.17238061     7.34417307    -0.57406533     0.54402069    -1.45741803
Ti      6.48138039     2.17238247     1.50621722     0.57324412     0.54387131    -1.45803895
Ti      1.03384207     3.15990952    10.16960121    -0.57324412    -0.54387131     1.45803895
Ti      2.72389878     0.49376538     1.50626402     0.57412575    -0.60150055    -1.45734372
Ti      4.79132369     4.83852654    10.16955440    -0.57412575     0.60150055     1.45734372
Ti      1.03382729     0.49376340     7.34412620    -0.57405787    -0.60161728    -1.45768234
Ti      6.48139518     4.83852852     4.33169209     0.57405787     0.60161728     1.45768234
O       2.37861643     1.87759059     5.95808069     0.78052267     1.39984586    -1.48777865
O       5.13660603     3.45470120     5.71773767    -0.78052267    -1.39984586     1.48777865
O       1.37904487     1.87761208     0.12020910    -0.78027996     1.40066425    -1.48896933
O       6.13617773     3.45467971    11.55560888     0.78027996    -1.40066425     1.48896933
O       5.13659131     0.78855527     0.12017119    -0.78066280    -1.40110108    -1.48736702
O       2.37863116     4.54373645    11.55564679     0.78066280     1.40110108     1.48736702
O       6.13616294     0.78853385     5.95811853     0.78026222    -1.40133325    -1.48824119
O       1.37905947     4.54375801     5.71769976    -0.78026222     1.40133325     1.48824119
O       0.27306247     3.24340210     3.15392981    -1.86701240     0.53663751     0.22150988
O       7.24216000     2.08888969     8.52188855     1.86701240    -0.53663751    -0.22150988
O       4.03066726     2.08883997     2.68401651    -1.86746362    -0.53672235    -0.22301191
O       3.48455521     3.24345182     8.99180166     1.86746362     0.53672235     0.22301191
O       0.27304768     0.57725617     2.68397918    -1.86719700     0.53622228    -0.22274298
O       7.24217478     4.75503556     8.99183893     1.86719700    -0.53622228     0.22274298
O       3.48454048     0.57730589     8.52192575     1.86752173     0.53585538    -0.22162635
O       4.03068198     4.75498590     3.15389255    -1.86752173    -0.53585538     0.22162635
