# total energy = -4989.82424500 eV

CRYSTAL
PRIMVEC
        3.08644925     0.00000000     0.00000000
        0.24164940     4.82996200     0.00000000
       -0.00000133    -0.00006276     4.83751629
PRIMCOORD
6 1
Ti      1.66404854     2.41494945     2.41875804     0.00000000     0.00000000     0.00000000
Ti      0.00000000     0.00000000     0.00000000     0.00000000     0.00000000     0.00000000
O       1.59031819     0.94127610     0.94276061    -0.01148564    -0.35086418    -0.35970261
O       1.73777884     3.88862281     3.89475541     0.01148564     0.35086418     0.35970261
O       0.07372970     1.47364791     3.36151962     0.01148075     0.35079322    -0.35969078
O       0.16791826     3.35625122     1.47599639    -0.01148075    -0.35079322     0.35969078
