# total energy = -19074.13647298 eV

CRYSTAL
PRIMVEC
        5.93400000     0.00000000     0.00000000
        0.00000000     9.29699974     0.00000000
        0.00000000     0.00000000     4.64899994
PRIMCOORD
22 1
Ti      4.42650901     7.04748498     2.22710400    -0.34711011    -1.00005151    -0.03183078
Ti      4.42854100     2.29069602     2.28834600    -0.21800855    -0.38768188    -0.18975160
Ti      1.53581298     7.04006899     2.61407402    -0.31515566    -0.32184259     0.80548681
Ti      1.60406002     2.48763198     2.05060698    -1.06022101    -0.20142261     0.66797233
Ti      3.04776298     4.61089098     4.60416302    -0.16284499     0.62799192    -0.67967137
Ti      2.95757398     9.25015697     4.61330699    -0.32990531     0.78213244    -0.69468379
Ti      5.87614500     4.58010302     4.40034299     0.43768934    -0.35174530     0.51782345
Ti      5.86962501     9.11361300     0.30412801     0.44239369     0.53543963     0.31709736
O       4.37474600     5.67322600     0.70941201     0.51506517     0.26591593     1.52839207
O       4.31090601     0.70988901     0.98755402     1.62726902     1.88154170     0.79056181
O       1.61689701     0.90714898     0.87185900    -1.90279085     1.08584566     0.32130291
O       4.43240399     8.28967000     3.91660000     0.98704404     0.12117897    -0.37277384
O       4.39429900     3.82849501     3.51593599     0.09104640    -0.86504669     0.09154673
O       1.45244698     8.16302597     4.07925300    -0.41419047     0.16629182    -0.30414516
O       1.49065400     3.66872401     3.66087198    -0.44788197     0.66278513    -0.26960983
O       3.03587200     6.14787202     3.21798602    -0.50845615    -1.50330812     0.25892073
O       2.96551799     1.43206699     3.18804501    -0.13989043    -0.21491731     0.19764540
O       5.78555700     6.20110598     3.26712701     1.44050145    -2.00488503     0.09853834
O       2.89754702     7.97874502     1.65827201    -0.48424406     0.19621741    -0.91316079
O       3.11927901     3.22254700     1.24214300    -0.19399700     0.29072040    -0.21903904
O       0.06651202     8.08304401     1.80968999    -0.10611152     0.50692274    -1.40404705
O       5.80614501     3.29226102     1.33328499     1.08979925    -0.27208324    -0.51657441
