# total energy = -19900.06447531 eV

CRYSTAL
PRIMVEC
        7.98101050     0.00000000     0.00000000
        0.00003141     5.66280568     0.00000000
        0.00000000     0.00000000    12.39952597
PRIMCOORD
24 1
Ti      2.89275118     3.35577338     4.60013570     0.55312626    -0.74400040     1.63975559
Ti      5.08829086     2.30703230     7.79939041    -0.55312626     0.74400040    -1.63975559
Ti      6.88311885     2.30703427     1.59957779     0.55289434     0.74390192    -1.64002915
Ti      1.09792319     3.35577168    10.79994839    -0.55289434    -0.74390192     1.64002915
Ti      2.89273548     0.52437068     1.59962750     0.55312626    -0.74400040    -1.63975559
Ti      5.08830657     5.13843521    10.79989868    -0.55312626     0.74400040     1.63975559
Ti      1.09790749     0.52436857     7.79934064    -0.55289434    -0.74390192    -1.64002915
Ti      6.88313455     5.13843732     4.60018540     0.55289434     0.74390192     1.64002915
O       2.52605134     1.99397017     6.32738321     0.67326650     1.51709052    -1.66397719
O       5.45499071     3.66883558     6.07214290    -0.67326650    -1.51709052     1.66397719
O       1.46452286     1.99399299     0.12766007    -0.67322921     1.51761991    -1.66507145
O       6.51651932     3.66881275    12.27186563     0.67322921    -1.51761991     1.66507145
O       5.45497507     0.83743267     0.12761982    -0.67326650    -1.51709052    -1.66397719
O       2.52606697     4.82537301    12.27190588     0.67326650     1.51709052     1.66397719
O       6.51650362     0.83740992     6.32742340     0.67322921    -1.51761991    -1.66507145
O       1.46453836     4.82539590     6.07210264    -0.67322921     1.51761991     1.66507145
O       0.28998783     3.44443942     3.34942133    -1.86893764     0.53877435     0.10396774
O       7.69105421     2.21836633     9.05010478     1.86893764    -0.53877435    -0.10396774
O       4.28050201     2.21831352     2.85038117    -1.86815165    -0.53857715    -0.10411120
O       3.70054004     3.44449222     9.54914474     1.86815165     0.53857715     0.10411120
O       0.28997213     0.61303651     2.85034152    -1.86893764     0.53877435    -0.10396774
O       7.69106992     5.04976917     9.54918432     1.86893764    -0.53877435     0.10396774
O       3.70052440     0.61308932     9.05014429     1.86815165     0.53857715    -0.10411120
O       4.28051764     5.04971643     3.34938175    -1.86815165    -0.53857715     0.10411120
