# total energy = -4906.43177234 eV

CRYSTAL
PRIMVEC
        4.97832091     0.00000000     0.00000000
       -0.00000650     2.13356625     0.00000000
       -2.48918901    -1.06686031     5.40258895
PRIMCOORD
6 1
Ti     -0.00021272     1.60024094     1.35064719    -0.05329539    -0.03490839    84.45715160
Ti      2.48933787    -0.53353495     4.05194166     0.05329539     0.03490839   -84.45715160
O       0.00005289     0.53337849     0.88003759     0.05322700     0.03637264   -75.88264125
O       2.48907211     0.53332745     4.52255132    -0.05322700    -0.03637264    75.88264125
O      -0.00002081    -0.53341710     3.58133206     0.00012830    -0.00160900     0.30359263
O       2.48914577     1.60012299     1.82125684    -0.00012830     0.00160900    -0.30359263
