# total energy = -4965.73021324 eV

CRYSTAL
PRIMVEC
        4.99353339     0.00000000     0.00000000
       -0.00000707     2.68882600     0.00000000
       -2.49679442    -1.34447350     5.38703246
PRIMCOORD
6 1
Ti     -0.00021373     2.01671215     1.34675790    -0.01478025    -0.01800030    26.32636396
Ti      2.49694525    -0.67235949     4.04027413     0.01478025     0.01800030   -26.32636396
O       0.00005301     0.67219597     0.87750351     0.01273236     0.01562589   -18.31112737
O       2.49667841     0.67215658     4.50952864    -0.01273236    -0.01562589    18.31112737
O      -0.00002039    -0.67221420     3.57101974    -0.00183063    -0.00001671    -1.67929454
O       2.49675170     2.01656675     1.81601240     0.00183063     0.00001671     1.67929454
