# total energy = -4987.77659438 eV

CRYSTAL
PRIMVEC
        4.16964936     0.00000000     0.00000000
        0.41591545     4.14885407     0.00000000
       -2.29281939    -2.07446050     5.32808131
PRIMCOORD
6 1
Ti      0.31177681     3.11179838     1.33202007    -0.00040521     0.00040521     0.00000000
Ti      1.98096824    -1.03740513     3.99606060     0.00040521    -0.00040521     0.00000000
O       0.10402282     1.03720696     0.86790082    -0.00059161    -0.00177946    -1.03265414
O       2.18872212     1.03718618     4.46017997     0.00059161     0.00177946     1.03265414
O      -0.10399974    -1.03718608     3.53194135    -0.00177946    -0.00059161    -1.03265414
O       2.39674461     3.11157916     1.79613943     0.00177946     0.00059161     1.03265414
