# total energy = -19519.94227831 eV

CRYSTAL
PRIMVEC
        5.17575250     0.00001323     0.00000000
        0.00001429     5.50856584     0.00000000
        0.00000000     0.00000000     9.26345890
PRIMCOORD
23 1
Ti      1.83966515     3.37158464     3.40032056    -0.05551708    -0.01114805    -0.04852239
Ti      3.34494964     2.17738420     5.77055500     0.00668024     0.01426551     0.02202511
Ti      4.54761684     1.95525147     1.41360242    -0.06025280     0.06841477    -0.09271479
Ti      0.88545985     3.29864753     7.93937087    -0.06255059    -0.02754244     0.01707496
Ti      1.93026758     0.59664861     1.17030099     0.14711858    -0.12770983    -0.00174192
Ti      3.20039775     5.15352183     7.94884290    -0.00730219    -0.09231781    -0.00021443
Ti      0.68615300     0.66181712     5.68222765    -0.08163718     0.03343618     0.03040331
Ti      4.41927856     4.85722998     3.48723954     0.15476221    -0.01665536     0.04415820
O       1.59300086     1.91325583     4.67062559    -0.01362788     0.00651132    -0.01712664
O       3.51523099     3.56428828     4.52568104     0.01139205    -0.05419476     0.04618629
O       0.80448313     2.06084989     0.11536445     0.02110337     0.03597720    -0.05593051
O       3.56296397     0.87638842     0.09025498    -0.07682331     0.07862822    -0.03545810
O       1.73970962     4.66756352     9.16764397    -0.02013972     0.05745441    -0.01378729
O       4.14299574     0.76697036     4.73891898    -0.02459081     0.10001389     0.01961624
O       0.93038086     4.63370157     4.56808880     0.04131456     0.03015391     0.01132674
O       0.15217316     3.37596248     2.43950789     0.07310857    -0.00159897     0.00719858
O       4.98420518     2.12109909     6.78902158    -0.08321944    -0.00144599    -0.01283161
O       2.77904700     2.15497159     2.12472590    -0.07760646     0.02746351    -0.02408765
O       2.54413675     3.39115222     7.15541672    -0.01775373     0.01645095     0.01218035
O       0.23275219     0.56322894     2.20190978     0.01989546    -0.09905127     0.07732621
O       4.94584415     4.76663277     7.36135439     0.01931336    -0.04041801     0.01119716
O       2.32211619     0.71726404     6.78975824     0.02972711    -0.02921546    -0.06433391
O       2.78035973     4.88864076     2.44269073     0.05660569     0.03252781     0.06805558
