# total energy = -39035.15565339 eV

CRYSTAL
PRIMVEC
        7.60600008     0.00000000     0.00000000
        0.00000000     7.60600008     0.00000000
       -3.79573973    -3.79573973     9.71340985
PRIMCOORD
46 1
Ti      2.05925644     4.59804944     6.18039964    -1.56548128     1.41679098    -0.35440279
Ti      3.63830500     6.71681699     1.35042901    -1.05348163     1.46594304     0.52812741
Ti      2.05376845     0.78755445     6.13215164     0.31154840    -0.94566161    -0.29438396
Ti      3.84615402     2.93063700     1.21139103    -0.61077607    -1.42478660    -2.00733349
Ti     -1.89001354     4.70613246     6.06508261     1.08432922     0.56429539    -0.40220450
Ti     -0.14385001     6.71536101     1.24337000     0.64266161    -0.21546315    -0.71402389
Ti     -1.70487554     0.95044647     5.90810762    -0.74664915    -0.04488299     0.67598004
Ti     -0.00941300     3.02330901     1.21460001     0.44777681     0.31866084    -1.08181880
Ti      3.99111647     0.90878546     8.38987960    -1.65801428     2.62057062     0.32317339
Ti      5.59047798     2.67742500     3.47218499     0.09969816     0.38362725     0.73140353
Ti      3.80971747    -2.73081555     8.56679261    -0.54116317    -0.92106514     1.15176851
Ti      5.53467100    -1.08131201     3.61706499     0.48391368    -0.60412565     0.70057342
Ti      0.10070746     1.12675844     8.34440963     1.03485835    -1.72027331    -0.21575703
Ti      1.84753802     2.82879197     3.42593199     0.72399978    -0.61260001     0.61399946
Ti     -0.04874156    -2.86283157     8.57640464     0.51897377     0.86372463     0.23044883
Ti      1.74500299    -0.97559202     3.82823698    -0.03779677    -0.04836350     0.06919535
O       1.93625644    -1.07894055     5.78721465    -0.26013326     0.67053573    -0.97508995
O       3.74099603     0.98454200     1.15022898    -0.67646263    -0.20854045    -2.98144128
O      -1.88290653     2.88981447     5.40956265     0.26788000    -0.83955780     0.36980756
O      -0.07578199     4.84514801     0.92937098    -0.74905699    -1.16077689    -0.46731000
O      -1.83588157    -0.99894155     5.75349161     0.43144875    -0.24175629    -0.45361681
O      -0.03233501     1.10029799     0.84723802     0.30345611    -1.74996314    -1.32018277
O       3.58895943     2.75487443     8.92100063     0.95083955     2.02442850     0.56342687
O       5.31012802     4.72938001     3.86333498     0.76487699    -1.43173013     0.65310570
O       3.95621046    -0.81720054     8.90853062     0.03472533    -1.79360172     0.31273111
O       5.52772999     0.75153197     4.04345400     0.77467110     2.77850943     0.39049749
O       0.11269147     2.80158046     9.09977565    -0.12306333     1.10484638    -0.15046770
O       1.94206701     4.55325998     4.22662098    -0.13859331    -0.76153738    -0.77200615
O       0.06108446    -0.66676355     8.89343563    -0.25916344    -1.34023044     0.96788186
O       1.82088003     0.97178999     4.13616898     0.05275983    -0.03504929     0.06003657
O       2.04663747     0.86777343     8.11429563    -0.74702299    -0.00557750    -0.59513270
O       3.77389598     2.49100798     3.06338498     0.29549134     1.13978202     1.55310372
O       1.97971946    -2.63566154     8.07301361    -0.89105367    -0.67163976     1.24119383
O       3.62274798    -0.87763999     3.34431698    -0.79715360    -0.70885958    -0.72533804
O      -1.82870455     0.88728843     7.91516263     1.52942694     0.82939371    -0.50421717
O       0.04798299     2.53196698     3.03557000    -1.14285629     0.85458770     1.15341428
O      -1.93079353    -2.84198553     8.04694661     1.65085813    -0.32685521     0.67768108
O      -0.08801101    -1.10717502     3.28241002     0.43312974     0.31152474     0.43117956
O       3.85495345     4.81839445     6.56946563     0.26432364    -0.80516594    -0.70087913
O       5.59776200     6.83942598     1.80217297    -0.50620952    -0.76842486    -1.53532711
O       3.84801043     1.10375346     6.41171561     1.31626081     0.12864905    -0.12992046
O       5.70905702     2.86857197     1.47470799    -0.39740091     0.75389915     0.81716862
O       0.09779344     4.61248444     6.49262364    -0.91100801    -0.42052722     0.80975587
O       1.68014100     6.35926700     1.53539498     2.72173482     1.34511837     0.71030608
O       0.33211847     1.40210545     6.42567462    -2.85617631    -0.04288447    -0.10979309
O       1.97141000     3.14348098     1.48022699    -0.47092703     0.27501250     0.75468668
