# total energy = -19518.00091282 eV

CRYSTAL
PRIMVEC
        7.60600008     0.00000000     0.00000000
        0.00000000     7.60600008     0.00000000
       -1.89786986    -1.89786986     4.85670466
PRIMCOORD
23 1
Ti      3.75562301     6.70666001     1.24215898     2.34457236    -0.75156176    -0.60765989
Ti      3.80646901     2.86801999     1.15325302    -0.51293913     0.31138153     1.09169415
Ti      0.05999198     6.57736000     1.17713802    -2.58840816    -0.87283148    -0.16896371
Ti      0.01653102     2.83768602     1.11304201     0.38534783     1.13397750     0.54528413
Ti      5.66363721     2.89003323     3.53061679    -0.75175536     0.23154361     1.57755518
Ti      5.67034924    -0.84182877     3.71425681     0.71620676    -1.21184673    -1.28655813
Ti      1.97913625     2.84442424     3.71044181     0.79574824     0.94276474     0.57595252
Ti      1.82101624    -0.90164580     3.57755979    -0.26413415    -1.12045092     0.63547949
O       3.80042702     4.69841901     0.88476499    -0.41829319     0.71622373    -0.13260084
O       3.91930500     1.00116600     0.71252500    -0.53467781    -1.05716242     0.28378485
O      -0.13459401     4.68845201     0.75448600     0.80239557     0.44937166     0.51061819
O       0.13622599     0.91882898     0.85124802    -0.55601232     0.47492767    -0.57494542
O       5.54162020     4.70318621     4.10760881     0.78418778     0.71372153    -0.42616848
O      -1.38286276     1.12005323     4.08159583    -0.69466168    -1.60404552    -0.79916446
O       1.85130422     4.74937820     4.03505279    -0.28291041     0.09623848     0.60610103
O       1.65378321     1.00209423     4.07073780    -0.11701043    -0.96954151    -0.24895770
O       3.82895523     2.67967321     3.42940879     0.11351939    -0.20881248    -1.19270409
O       3.81540523    -0.86258876     3.29149482    -1.17978763     0.69790924    -0.56609748
O      -0.15261075    -1.10180577     3.21224979     2.51574799     0.34801925     0.00981622
O       5.68453299     6.41579800     1.64567701    -1.16414812     1.36309219     0.22961580
O       5.69662998     2.94159701     1.57581201     0.70599254    -0.68691083     0.42933042
O       1.87288698     6.38422898     1.53956099     0.68402785     0.89099171     1.20223929
O       1.90004600     2.82429100     1.88544600    -0.78300765     0.11300080    -1.69365133
