# total energy = -4984.71162654 eV

CRYSTAL
PRIMVEC
        2.67013141     0.00000000     0.00000000
        0.00000000     4.18369561     0.00000000
        0.00000000    -0.00005429     4.18369561
PRIMCOORD
6 1
Ti      1.33506566     2.09182061     2.09184776     0.00000000     0.00000000     0.00000000
Ti      0.00000000     0.00000000     0.00000000     0.00000000     0.00000000     0.00000000
O       1.33506566     0.81533006     0.81534064     0.00000000     1.72750969     1.72750969
O       1.33506566     3.36831116     3.36835487     0.00000000    -1.72750969    -1.72750969
O       0.00000000     1.27646854     2.90718925     0.00000000    -1.72665788     1.72665788
O       0.00000000     2.90717268     1.27650626     0.00000000     1.72665788    -1.72665788
