# total energy = -19074.66609954 eV

CRYSTAL
PRIMVEC
        7.60600008     0.00000000     0.00000000
        0.00000000     7.60600008     0.00000000
       -1.89786986    -1.89786986     4.85670466
PRIMCOORD
22 1
Ti      3.81679601     6.61853401     1.20559098     1.33227390    -1.28151002    -0.59579810
Ti      3.84817998     2.68095800     1.19501701     0.25331700     2.49670073     1.30002300
Ti      0.30542201     6.75358698     1.03730198    -1.71374271    -0.36895344    -0.14305366
Ti      0.02651702     2.88414598     1.01757901    -0.13118622     0.32634459     1.22167272
Ti      5.76113520     2.90067123     3.56397883    -1.28048030     0.72434328     0.07910233
Ti      6.02681420    -0.87276077     3.63484979    -1.47589604    -0.88871628    -1.16203030
Ti      1.85647323     2.80284525     3.74645782     1.34371789    -0.80391767    -0.76093575
Ti      1.11848221    -1.01056175     4.02786979     3.01264214     0.01150595    -2.72161964
O       3.92571799     4.73985899     0.81124402    -0.42058532     0.17489190    -0.28175136
O       4.00388001     0.89252099     0.78760599    -0.62714063    -0.74239629     1.29121440
O       0.20504602     4.78548799     0.72207299     0.02477747     0.58593972    -0.07451574
O      -0.24061002     1.02511000     0.63733399     1.10884007     0.01889453     1.06697864
O       5.35527425     4.83679125     4.05632783     1.61150944    -0.10105596    -1.04081097
O       5.45149222     1.02664922     3.95208981     1.16391029    -0.80222511    -0.06643579
O       1.81348620     4.75495425     4.12268581    -0.91967160     0.89034173     0.13837502
O       2.07537322     0.87896024     4.08920783    -1.74467978    -0.35579607    -0.21588584
O       3.74509625     2.82771124     3.16815583     0.05474472     0.22345106    -0.02366367
O      -0.00019580     2.83861123     3.21006180     1.01837243    -0.00442256    -0.01201426
O       5.76687900     6.62664000     1.71828600    -0.61648315     0.11369500     1.19403438
O       5.79182902     2.89489002     1.61328998    -0.62911215     0.22629341     0.09506735
O       2.01205102     6.63300002     1.87202300    -0.41251669     0.23247641     0.95306176
O       1.97099602     2.82664399     1.47412801    -0.95261079    -0.67588465    -0.24101453
