# total energy = -19014.11770982 eV

CRYSTAL
PRIMVEC
        7.60600008     0.00000000     0.00000000
        0.00000000     7.60600008     0.00000000
       -1.89786986    -1.89786986     4.85670466
PRIMCOORD
22 1
Ti      4.25995100     6.34691299     1.44656099    -0.05294469     0.99973527    -2.50855558
Ti      4.95326824     2.87096222     2.81105882   -16.92702618     8.68798320     0.10292953
Ti      0.31811702     6.16138800     0.25497099    -2.57029525     5.04351486     8.59298322
Ti      0.04626501     2.79023998     0.08060798   -13.80935521     0.39760660    10.11938217
Ti     -0.98815676     2.39217021     4.27625680    -8.84576801    26.31470708    31.11139492
Ti     -1.12180280     1.61643520     3.04187583    -0.12255373   -35.19030196   -41.31595211
Ti      0.62934722     2.21105622     4.04898179    28.04094433     4.27452667    -0.48761555
Ti      0.56963624    -0.65112879     4.13108581     9.23449581    -5.06929866     0.21743185
O       4.26543301     4.61306802     2.08442300    -0.11312035     1.21306312    -0.17872105
O       3.95067801     0.66782598     0.89222401    -1.25400975    -1.65883601    -0.19202728
O       0.94517402     4.41406699     1.03948102     0.85303321     1.90968064     8.53898284
O       0.88324202     1.32826300     0.34391801     1.27103329    -6.30287019     4.53292469
O      -1.17370778     4.30300825     3.48960582    -2.03397913     1.04273827    -3.08124768
O       4.10780323     0.97174321     3.55338179     3.53176889     1.11719333     0.70785093
O       0.74037724     4.77962222     4.62273783     0.52038170     0.00234922     1.88836362
O       3.14350300     2.73260798     0.18930200    -0.26072513    -1.40048632    -1.35997909
O       2.65925422     2.99043123     3.43478782    -0.56811502    -1.03205739     0.58369668
O      -0.00852700     2.77543302     2.31357299     7.96410838     0.34840003    -0.37340711
O       5.84017201     6.54811100     0.70267600     1.81140995    -0.78119013    -0.01189907
O       5.94304698     2.39736001     1.62473598    -3.69549988     0.59999594   -12.33760276
O       0.73807399     6.38264103     2.19444397     0.15876902     2.64041928     1.73760178
O      -1.11153179    -0.25023877     3.76634383    -3.13255278    -3.15687311    -6.28653545
