# total energy = -19518.45958158 eV

CRYSTAL
PRIMVEC
        7.60600008     0.00000000     0.00000000
        0.00000000     7.60600008     0.00000000
       -1.89786986    -1.89786986     4.85670466
PRIMCOORD
23 1
Ti      3.83028601     6.63823300     1.20035302    -0.77618188     0.07482093     1.09115730
Ti      3.80868700     2.74693101     1.14996799     0.07411208     0.39890089     1.43643987
Ti     -0.05972300     6.65952799     1.16162699     0.19056330    -0.14002696    -0.67774047
Ti      0.01157099     2.87923098     1.19499801    -1.27229416    -0.08510380    -0.60550479
Ti      5.69961824     2.89404223     3.62440182    -1.06380384    -0.38293690     0.44807274
Ti      5.81645423    -0.82958377     3.63394580    -1.92540268     0.02574986     0.74174271
Ti      1.99080223     2.80016724     3.73092880     0.83330230     0.06775014    -0.38210130
Ti      1.81207023    -0.98513579     3.58284082     1.86166167     0.58116518     0.16398579
O       3.83398501     4.72544299     0.75435799    -0.22651479     0.01075467     1.21460347
O       3.72043802     0.95398699     0.89837898    -0.19519771    -0.07802890    -0.69971570
O       7.29848301     4.72063102     0.70498898     0.71134866     1.18352653     0.90557424
O       0.21437902     0.98540498     0.78651498    -1.12262967    -1.71254149    -0.46107430
O       5.62221120     4.73852324     3.89779781     0.88883095     0.90450440     1.15262572
O      -1.40815077     1.00716824     4.17214981    -0.64158381     0.14037817    -1.29220248
O       1.90764223     4.82391520     4.08343483    -0.22591598    -1.02459373    -0.08217969
O       1.57569522     0.94603520     4.05107183     0.46343149     0.06927274     0.49503164
O       3.83222121     2.77326122     3.27195781    -1.11188786    -0.07248200    -0.63830411
O       3.78075020    -0.69211876     3.17965380     0.13995162    -0.29972466     0.84224100
O      -0.01998279    -0.96029378     3.13539881    -0.22917614    -0.43154594    -0.13247048
O       5.63593203     6.71189199     1.66548099     1.51889415     0.17830299    -0.74676253
O       5.68979100     2.69137999     1.70508303     0.70090844    -0.02822147    -1.07712190
O       1.87346903     6.48989203     1.72655000    -0.36962527    -0.06637742    -1.62488381
O       1.67026300     2.77810002     1.86355097     1.77720861     0.68645677    -0.07141267
