# total energy = -19069.57017037 eV

CRYSTAL
PRIMVEC
        5.17600016     0.00000000     0.00000000
        0.00000000     5.50899976     0.00000000
        0.00000000     0.00000000     9.26300011
PRIMCOORD
22 1
Ti      1.87753401     3.34675897     2.93825800    -0.61337134     2.85907009     1.35704006
Ti      3.48387801     2.60779501     5.94199301     0.16470827    -1.66013442    -1.21044805
Ti      4.45759098     2.19519398     1.49094500    -0.90539426     3.20420405    -1.79332789
Ti      1.13234798     2.11894202     7.92504301    -0.73166733    -0.73971797    -0.28939962
Ti      1.67442398     0.67203902     1.42561399     2.93373264    -1.29880173    -4.94750623
Ti      3.17505397     0.27240600     8.00753301    -0.54525379     0.18382649    -1.01184543
Ti      0.68177900     4.78458802     6.49535901    -0.46234520     2.09375987     1.33663938
Ti      4.56743098     5.29012999     3.57155998    -2.15208768    -1.55324256     2.69804724
O       3.35136298     3.69625001     4.26309299    -0.71454866    -0.17290598     0.77415688
O       1.17086901     2.46318802     0.48960098    -0.80918869    -0.03486006    -0.53546020
O       4.95770200     3.07479399     6.94764500     2.02129201     7.95137370    -1.86820333
O       3.50569498     0.95412701     0.44449503     0.44160307     0.16751129    -0.88601765
O       1.25450902     0.17246199     8.64358999     0.29058979    -0.06042223     0.35968872
O       4.31508201     1.17372599     4.74970100    -0.58271838    -0.19820873    -0.35341369
O       0.71336798     4.63228398     4.73417298     0.53758316    -0.82837941    -1.74474071
O       0.10377600     3.82536799     2.26309499    -0.10791901    -0.58280657     0.84336174
O       4.52302999     1.39330200     7.46467399    -1.11599468    -6.76153100     0.60877575
O       2.67855898     1.83923501     2.42202602     1.69024307    -0.09770221     1.90558796
O       2.23097700     3.94267701     6.83061301     1.95621994    -1.51311405     1.41221159
O       0.14648198     0.86883200     2.24898998    -1.34723259    -1.07677917     3.05017537
O       2.11787801     1.18146801     6.44251701    -0.27614455     0.30858572     0.16649853
O       2.67287000     4.72334300     2.08099800     0.32789471    -0.18972434     0.12817982
