# total energy = -39036.77817819 eV

CRYSTAL
PRIMVEC
        7.60600008     0.00000000     0.00000000
        0.00000000     7.60600008     0.00000000
       -3.79573973    -3.79573973     9.71340985
PRIMCOORD
46 1
Ti      1.85700045     4.72485242     6.14621061     0.67033775     0.01238089     0.89839109
Ti      3.72762202     6.90973702     1.25675099     0.48394581    -1.50265377     0.79033992
Ti      2.08046147     0.90384046     6.00765661     0.75731872    -0.47714293     1.81919346
Ti      3.78179898     2.80055100     1.23945801     0.59042963     1.03865844     1.00078222
Ti     -1.88176457     4.67115046     5.99373263    -0.54798559    -0.17209171     1.72143802
Ti      0.06397599     6.72618602     1.15702097    -2.13279283    -0.78090500     0.15806454
Ti     -1.80565353     0.88226945     6.00081662    -0.96449803    -0.00359569     0.75774089
Ti     -0.09824102     2.87040499     1.11871399    -0.27155950     0.76473250    -0.30343708
Ti      3.82195845     1.14303445     8.48840564     0.89250274    -1.55313972    -1.22050775
Ti      5.70288099     2.73319399     3.71925700    -0.01454576    -0.02358602    -0.81145871
Ti      3.90204546    -2.81479958     8.45016565     0.63032751     1.18895490    -0.35552868
Ti      5.57683298    -1.06492101     3.61598700    -0.74447040    -0.14581503    -0.35083590
Ti      0.09212346     1.07768947     8.27870962    -0.53484288    -0.32309394     2.08120285
Ti      1.89642997     2.80070298     3.46475899    -1.30657006     0.47161223     1.72256519
Ti      0.07647447    -2.70634957     8.55986864    -0.83395587    -0.83919527    -0.47439622
Ti      1.70713502    -1.03294801     3.79129999     0.93036482     0.18238024     0.50056877
O       2.03698945    -1.02063956     5.83875360    -0.44996842     0.50790208    -1.05022173
O       3.82529401     1.06981500     0.80700298     0.29748266    -1.21474385     0.76537656
O      -1.78374755     2.80626448     5.69744661     0.31110745    -1.30417636    -0.87008966
O      -0.07681002     4.81470000     0.58820099     0.03725736     0.15816584     1.86531444
O      -2.04197854    -1.01747455     5.56908260     0.64285753    -0.01424880     1.13306090
O      -0.06081802     0.99959799     0.76111701    -0.43891370    -0.01573541     0.79639513
O       3.97894142     2.96007143     8.90963660    -0.55827335    -0.99800594     0.14571090
O       5.43933897     4.57964100     4.19770399     0.17751571     1.17696173    -1.70621220
O       3.88710943    -0.87252555     8.85241164     0.01929459    -1.12063373    -0.05885617
O       5.72444899     0.78554003     3.97715497     0.16867729     1.54184717     0.21932161
O       0.10343346     2.80095847     9.04497564     0.00571916    -0.48943127     0.12072465
O       1.79241198     4.74016999     4.23005301     0.21174714    -1.97350007    -1.36901035
O      -0.00050954    -0.83012554     9.07181064     0.43027042     1.39704593    -1.44696983
O       1.75243301     0.98976598     4.23221899    -0.51933963     0.30149770    -2.29177731
O       2.00850744     0.76570043     7.96442565    -0.28903710     1.05664460     0.74101457
O       3.69271500     2.60774897     3.25861000     0.95373359     0.41171887    -0.03909441
O       1.94530145    -3.00364357     8.21017165    -0.19904434     0.55537392    -0.76128644
O       3.66270499    -0.85072302     3.33530001    -0.66399098    -0.35496535    -0.94760176
O      -1.77884658     1.01305645     8.03837161    -1.07192544    -0.36047805     0.02058092
O      -0.14172901     2.83335899     3.10420301     1.44028573    -0.21504895     0.81757383
O      -1.78156454    -3.01955455     8.33488761    -0.37148186     1.14555904    -0.69568627
O      -0.11000801    -1.12107402     3.21159202     0.22357936     0.29361032    -0.05167714
O       3.89266346     4.42288044     6.53945762    -0.89134909     0.77821279     0.12759567
O       5.49227501     6.39732898     1.60102000     0.08061980     0.49494114     0.28587978
O       3.91801545     1.14767644     6.41940360    -0.71602319    -0.04807733    -0.47061541
O       5.64978700     3.22324398     1.73148199    -1.33327638    -0.65588660    -1.03108140
O      -0.02698756     4.65618845     6.59423662     0.95585346     0.37473637    -0.56208707
O       1.74469501     6.52525599     1.59007201     2.64828043     0.25964423     0.69645246
O       0.02883646     1.09331946     6.50288661     1.41590215    -0.23842080    -2.32432311
O       1.86879401     2.87414299     1.53376099    -0.12156694     0.71199092     0.00746623
