# total energy = -19954.73551530 eV

CRYSTAL
PRIMVEC
        5.93400000     0.00000000     0.00000000
        0.00000000     9.29699974     0.00000000
        0.00000000     0.00000000     4.64899994
PRIMCOORD
24 1
Ti      4.44823301     6.84892201     2.61311600     1.52976581     2.66563384    -1.93220557
Ti      4.38433300     2.46601001     2.17399799     1.77745981    -0.26949696     0.84013372
Ti      1.57387400     6.25534702     2.22748898    -1.70010146     4.68636895     0.81657058
Ti      1.52568501     2.54474201     2.28654701    -1.98756838    -1.52151797     0.96501045
Ti      3.02306199     4.58069401     0.09849999     3.27820711     2.02663399    -1.55890593
Ti      2.72708998     0.41380100     4.50492398     2.14134432    -3.14062039    -2.68210845
Ti      0.04170499     4.38640801     4.62083999    -2.01683912     1.90336267    -0.64539393
Ti      5.82795299     0.34477099     4.55569499    -0.43596644    -2.49362338    -1.57760712
O       4.47782100     5.33856701     1.03170101     0.13035498    -0.14209824    -0.90199860
O       4.29104101     1.11981399     0.88462302     1.85445564     0.17013124    -0.69765625
O       1.47728301     5.40588502     0.64854001    -0.34248958     0.39767139     0.73601738
O       1.56782101     1.35886997     0.74821499    -2.45113408    -0.11548346     0.34921507
O       4.52725499     8.55466101     3.82925300     0.21118844    -0.16022452     0.24012158
O       4.50296602     3.70296898     3.69481901    -1.06822125    -0.71538067     1.14111463
O       1.53088301     8.71381900     3.64332599    -0.62053932     0.62889284     2.24177627
O       1.62333498     3.65166800     3.76783198    -0.47335364    -0.55609125     0.31551561
O       3.06392802     5.98816600     3.49751999    -0.55161239    -1.04064205     0.56442086
O       2.97152500     1.46756499     2.87040002     0.02167312    -0.92171563     2.88396121
O       5.90332503     5.87058102     3.26846799     0.96703288    -2.47625171     2.52095190
O       5.86395302     1.51831902     3.13348700     0.13813180    -0.17224032     0.26230147
O       2.97410701     7.37479402     1.66740698    -0.03899619     1.36121322    -1.28458378
O       2.90403902     3.40327701     1.51641303     0.54500465     0.27411544     0.14871061
O       0.26555199     7.49803200     1.69774498    -0.67103735     0.61167775    -0.63541959
O       0.06477601     3.56163701     1.75614498    -0.23675884    -1.00031454    -2.10994265
