# total energy = -19961.36080983 eV

CRYSTAL
PRIMVEC
        7.60600008     0.00000000     0.00000000
        0.00000000     7.60600008     0.00000000
       -1.89786986    -1.89786986     4.85670466
PRIMCOORD
24 1
Ti      3.81589599     6.47540500     1.24723702     0.50059320     2.15834729    -0.04755488
Ti      3.77877198     2.80316699     1.24529203     0.23050565    -1.51206787    -0.83287550
Ti      0.03004700     6.73452702     1.20237501    -0.39099680    -0.60838237     0.50979107
Ti     -0.00226297     2.91455901     1.16425202    -0.00384020     0.52784073     0.13245120
Ti      5.68463221     2.94904020     3.56470682    -0.30445369    -0.66584449     0.51776509
Ti      5.71332023    -0.89161477     3.65872082     0.03430856     0.64382350    -0.14665938
Ti      1.83734421     2.80818221     3.60277382     0.45769279    -0.21810239     0.13540514
Ti      1.91297825    -0.99703577     3.60527683    -0.08609548     0.06809955     1.87388727
O       3.80357801     4.70271302     0.87947899     0.07049196    -1.08689158    -0.57516319
O       3.81453399     0.83027699     0.85098301     0.03282040     0.80843484    -0.59416339
O       0.08194299     4.80403898     0.67574802    -0.19213295     0.91768542     1.10802709
O      -0.02517598     1.08868001     0.73869498     0.29194013    -2.29451450     1.05040479
O       5.67469421     4.82161322     4.09878679     0.18789500    -0.07641476    -0.27793661
O       5.72054122     1.05517520     4.14906683    -0.18127750    -0.20152314    -2.29020893
O       1.88035621     4.64281323     4.12820280    -0.29557310     0.70330933    -0.42910931
O       1.86788324     0.89237821     4.04620779     0.05465627     0.42664876     0.48890625
O       3.68295322     2.94316025     3.29743780     2.03355824    -0.34131587    -0.62720414
O       3.81592424    -0.92829776     3.24132782    -0.17871796    -0.13532158     0.22717016
O      -0.01679376     2.87641824     3.08160482    -0.19174703     0.32390075     1.32496143
O       0.00563621    -0.85395180     3.24941481     0.48498326    -0.21368189    -0.21522353
O       5.75679002     6.56999798     1.77537300     0.12674052     0.03439109    -1.78281413
O       5.67904399     2.74318200     1.60009299    -0.13914250     0.65492861     0.41258096
O       1.93273301     6.55749902     1.67418701    -0.99299383     0.11116117    -0.35521757
O       1.96507400     2.81771301     1.58951198    -1.54921493    -0.02451085     0.39277986
