# total energy = -19518.21585659 eV

CRYSTAL
PRIMVEC
        7.60600008     0.00000000     0.00000000
        0.00000000     7.60600008     0.00000000
       -1.89786986    -1.89786986     4.85670466
PRIMCOORD
23 1
Ti      3.70174801     6.67649802     1.25719502     1.17972053    -1.13753745     0.63785056
Ti      3.80245398     2.83405099     1.17790898     0.10914054     1.52237440    -1.25922189
Ti      0.03720899     6.62217999     1.23345602    -1.26199714    -1.60165388    -0.52371180
Ti     -0.00483599     2.75184399     1.13087999    -0.43192287     1.63447094    -0.24877515
Ti      5.55249025     2.88220824     3.56031084     1.10608642    -0.56853925     1.96271995
Ti      5.83902020    -1.00102677     3.67878680    -1.25550948     0.53171950    -1.75231853
Ti      2.11621824     2.97346321     3.65983982    -1.69610288    -0.45467868     1.42489819
Ti      1.88450221    -0.87316580     3.68302080     1.41114304    -0.31151472     0.20792982
O       3.86929500     4.77194899     0.87335302     0.16318592    -0.51426376    -0.59405721
O       3.55822000     0.99424600     0.80477700    -0.04396819    -0.46119129    -0.30845665
O       7.28308602     4.73842100     0.72388601     0.75653710    -0.31407399     0.02870175
O       0.21251298     0.87457801     0.80331901    -0.09911812    -0.20014991    -0.01864719
O       5.43073725     4.71998521     3.95706979     1.46018299     0.55405417     0.51908998
O       5.94091323     0.93475621     4.06551784    -0.70177541     0.29652107    -0.02121212
O       2.03133122     4.80562022     4.11147482    -0.62734812    -0.00768657     0.20217312
O       1.81107220     1.05932623     3.98442280     0.28520667    -0.19311949     0.43466495
O       3.80012423     2.83443925     3.02041484    -0.16428867    -0.30068677     1.74519425
O       3.74710723    -0.90281179     3.27602480     0.10560039     0.79989312    -0.37314023
O       0.09179521    -0.73872578     3.19921880    -1.09685281    -1.08241683    -0.34431224
O       5.69217097     6.59631603     1.72229102     0.31588482     0.70495535     0.14557591
O       5.68976502     2.58074400     1.65862798     1.27902402     0.05194247    -1.29745678
O       1.87908698     6.21888998     1.56274800    -0.33102091     1.27432867     0.40155401
O       1.73895000     3.01807899     1.82705499    -0.46180732    -0.22274683    -0.96904220
