# total energy = -19517.67068742 eV

CRYSTAL
PRIMVEC
        5.93400000     0.00000000     0.00000000
        0.00000000     9.29699974     0.00000000
        0.00000000     0.00000000     4.64899994
PRIMCOORD
23 1
Ti      4.47859402     7.17394501     2.15512298     0.58026786    -1.15171735     1.32643364
Ti      4.42882300     2.30305702     2.32206602     1.34949233    -0.72163642     0.18328527
Ti      1.38873002     7.01734601     2.17650000    -1.39308334    -0.12788826     0.94931283
Ti      1.42349897     2.37619699     2.43300401    -0.74333577    -1.25257353    -0.42165773
Ti      2.96604600     4.45107601     0.25161098     0.49582663     0.41006591    -0.00225897
Ti      3.01414202     0.01663400     4.61776002    -0.65800391     0.46696033    -0.56703259
Ti      5.89402802     4.61343902     4.63568902     0.00219829     0.43730213     0.04304491
Ti      0.04366501     0.05464898     0.01350201     0.86452964     0.87579725    -0.96969372
O       4.47385598     5.46685402     1.03469202    -0.81963174     0.17143762    -0.95266298
O       4.50432998     0.83701601     0.93757403    -0.82280911     0.04715071     0.07178651
O       1.52949201     5.45995101     0.97211999     0.44234484     0.80586656    -0.05882146
O       1.55539699     0.93569000     1.00449002     0.01510858    -0.94188080    -0.90228939
O       4.51967500     8.52480102     3.44823998    -0.57949859    -0.20990263     1.97652472
O       4.53582899     3.70380402     3.82257299    -1.24116297     0.40450024    -0.72734479
O       1.46389901     8.38602799     3.74197701     0.53624619    -0.26709401    -0.52186857
O       1.48844299     3.69704600     3.81951598     0.56844721     0.53530388    -0.39478995
O       3.08598101     1.48850999     3.31251999    -1.22468657    -0.80043330     0.59057670
O       5.92654501     6.08661700     3.05005702     0.19079341    -0.54618016     1.56261989
O       5.87632101     1.47135501     3.21259302     0.87975470    -0.67474797     1.05440825
O       2.93815000     7.78482702     1.40229601    -0.28484105     0.27705087    -0.82912143
O       2.95659802     3.16420298     1.51585501    -0.28290116     0.76410155    -0.71809575
O       5.87382101     7.87654100     1.31062197     1.59295944     0.44113256    -1.11398459
O       5.92637900     3.08294300     1.32301800     0.53198484     1.05738482     0.42162945
