# total energy = -4821.24803048 eV

CRYSTAL
PRIMVEC
        5.21982092     0.00000000     0.00000000
       -0.00000646     1.73994031     0.00000000
       -2.60994368    -0.87008337     5.92146912
PRIMCOORD
6 1
Ti     -0.00022339     1.30499672     1.48036692    -0.09573069    -0.07696677   177.67979697
Ti      2.61009403    -0.43513984     4.44110133     0.09573069     0.07696677  -177.67979697
O       0.00005511     0.43496622     0.96455878     0.09504858     0.07632477  -171.53989493
O       2.60981538     0.43489062     4.95690952    -0.09504858    -0.07632477   171.53989493
O      -0.00002395    -0.43503929     3.92529319    -0.00074973     0.00124827    -0.05827613
O       2.60989434     1.30489608     1.99617511     0.00074973    -0.00124827     0.05827613
