# total energy = -19075.64278838 eV

CRYSTAL
PRIMVEC
        7.60600008     0.00000000     0.00000000
        0.00000000     7.60600008     0.00000000
       -1.89786986    -1.89786986     4.85670466
PRIMCOORD
22 1
Ti      3.83731100     6.63394698     1.22742197     0.50526310    -0.75765759    -1.35908898
Ti      3.83455298     2.74158399     1.18189400     0.29614954     1.52842575     1.03055124
Ti      0.25650301     6.70062999     1.02697302    -1.53442414     0.03616926     0.33787265
Ti      0.02322601     2.84820997     1.13082300    -0.35372736    -0.08316930    -0.05162237
Ti      5.70471422     2.89085023     3.57730081    -0.53619502     0.11325019    -0.03252627
Ti      6.03948921    -0.86990676     3.59460480    -1.20446226    -0.55785580     0.43181874
Ti      1.88898821     2.78679324     3.69889781     0.36564057     0.04890883    -0.29517124
Ti      1.25049622    -0.99034676     3.95928783     2.26205226    -0.00486864    -1.96472104
O       3.92492502     4.66006800     0.78009601    -0.40944910     1.60732959    -0.40537313
O       4.07971699     0.90356798     0.88660600    -1.43704794    -0.66407428     0.28632741
O       0.11845802     4.76735001     0.70455998    -0.10790487     0.26478233    -0.06110229
O       7.33347502     0.94261502     0.65531501     1.33180288     0.70696236     0.97923148
O       5.49301321     4.83161325     4.02820581     0.97771916    -0.40814170    -1.36328116
O       5.44857121     0.94458922     3.99373182     1.12787833     0.15395129    -0.26401563
O       1.89663122     4.80477020     4.09363683    -0.78163571    -0.05697258     0.70829573
O       1.97536623     0.85346723     4.08691882    -1.06783096    -0.25781078    -0.82990227
O       3.71749124     2.91057224     3.11636584     0.69016302    -0.26627871     0.85607123
O      -0.02040677     2.88215320     3.25690981     0.58272121    -0.22645797    -0.35661600
O       5.69143600     6.59521200     1.74536299    -0.09044244    -0.09811256     0.56799829
O       5.75944501     2.90808802     1.56846502    -0.33562499     0.05277165     0.88464365
O       1.91893599     6.69079401     1.87595198     0.55461621    -0.08881622     0.85894315
O       1.91948898     2.93981299     1.53645800    -0.83526174    -1.04233461     0.04166654
