# total energy = -19960.97917381 eV

CRYSTAL
PRIMVEC
        5.93400000     0.00000000     0.00000000
        0.00000000     9.29699974     0.00000000
        0.00000000     0.00000000     4.64899994
PRIMCOORD
24 1
Ti      4.43568299     7.02713701     2.28373200     1.47834887     0.22071258    -0.36594216
Ti      4.47773601     2.39660302     2.37145398    -0.92018814    -0.94098400    -1.47146191
Ti      1.50429698     6.86507002     2.29645802    -1.26683673     0.94639334     0.02984795
Ti      1.50004198     2.29853901     2.43984998     1.06940859    -0.63415126    -1.42093714
Ti      2.94985699     4.65423700     4.61857601     0.49183191     0.58746798     0.71685725
Ti      2.95136202     9.29070698     0.02670101    -0.53858872    -0.03857068     0.49618350
Ti      0.00654402     4.58728401     4.62681498    -0.60232048     1.11590572     0.47478111
Ti      5.90655301     0.06338998     4.56306701     0.35822525    -0.97915564     1.62083689
O       4.51785199     5.65905400     0.88663299    -0.37428925    -1.79554599    -0.99547109
O       4.52091000     0.87735799     1.04784499    -0.59880398     0.02182687    -0.79616810
O       1.47111302     5.60461399     0.80434402     0.13764740    -0.60404826     0.14935595
O       1.43807400     0.81976102     0.99655898     0.43792202     0.54442410    -0.03554269
O       4.44568698     8.42412901     3.72650900    -0.14266234     0.09629479     0.15552635
O       4.41625398     3.75915501     3.68658099     0.37268745     0.50388396     0.77859640
O       1.48494698     8.39737799     3.78687400     0.30694124    -0.00291229    -0.46493404
O       1.51821498     3.75506399     3.69600199    -0.48621636     0.14981207     0.53159892
O       2.97808801     6.02825002     3.28567499    -0.11037081     0.34993216    -0.77054268
O       2.96564002     1.47463602     3.33092102    -0.16142009    -0.02577198    -0.13002176
O       0.07673800     6.01381099     3.09630499    -0.31905911    -0.56868452     1.15524104
O       5.91395001     1.46535499     3.28009301    -0.16333170     0.35051091     0.04337247
O       3.01947301     7.85377998     1.38834901    -0.46973481     0.00127630     0.21452110
O       2.85109399     3.18805300     1.40752999     0.73335551     0.29603539    -0.06814146
O       5.91065598     7.82681199     1.39576802     0.39843063     0.21431181     0.33020227
O       5.87596598     3.24596299     1.40445097     0.36902337     0.19103715    -0.17775817
