# total energy = -4985.97423695 eV

CRYSTAL
PRIMVEC
        3.02556718     0.00000000     0.00000000
        1.82331168     4.37594772     0.00000000
       -0.00001162    -0.00006298     4.84224013
PRIMCOORD
6 1
Ti      2.42443354     2.18794222     2.42112001     0.00000000     0.00000000     0.00000000
Ti      0.00000000     0.00000000     0.00000000     0.00000000     0.00000000     0.00000000
O       1.86811784     0.85279538     0.94368126    -2.95616398     1.53509957     1.60525343
O       2.98074923     3.52308907     3.89855871     2.95616398    -1.53509957    -1.60525343
O       0.55631071     1.33512142     3.36480233     2.95624394    -1.53459074     1.60480863
O       1.26698932     3.04076321     1.47743769    -2.95624394     1.53459074    -1.60480863
