# total energy = -19071.49192950 eV

CRYSTAL
PRIMVEC
        5.17600016     0.00000000     0.00000000
        0.00000000     5.50899976     0.00000000
        0.00000000     0.00000000     9.26300011
PRIMCOORD
22 1
Ti      1.43048300     3.10006601     3.35055000     0.94508439    -0.82138446     0.62139087
Ti      4.75785001     3.12965798     5.60591101    -2.45882683     0.31545262    -0.94803628
Ti      4.19816802     1.94321998     1.54770100     2.93814568     0.30824350    -0.60134809
Ti      1.29439602     2.95110002     8.08836600    -0.52345263    -0.08624023     0.55655817
Ti      1.59134098     0.54173399     1.31466700    -0.91018166    -0.69740865    -0.80979110
Ti      3.36456298     5.26036800     8.14774402    -0.47068252    -0.51132036    -1.30938954
Ti      1.48309301     0.06502202     6.03172401    -0.66629366     3.57312150    -2.05911527
Ti      3.76443202     5.00139199     3.40882702    -1.12579676    -0.66345285     1.94509760
O       3.14245099     3.48576902     4.47493799    -0.23594920    -1.68084440     0.59900709
O       0.70067502     2.24033698     0.44292998    -0.91578332    -1.35554805    -0.14209927
O       4.69215800     3.78923699     7.42568299     0.47823874     0.57338039     0.73864042
O       3.38910898     0.46730500     0.56133498     2.00183801     1.91353601    -0.70478875
O       2.12603601     4.36637400     9.18646801    -1.76418957    -1.35947387     0.05747240
O       2.76076698     0.34493202     4.84937402     1.11830456     0.56780803    -0.72012615
O       0.13859703     4.73149402     4.79758699     0.95809752    -0.21328800     0.77422321
O       4.75017303     3.30041998     2.69447001     0.56363873     1.03782155    -0.73351235
O       0.82501998     2.05171900     4.85875898    -0.57100957     0.06460722     0.51058657
O       2.56930800     1.77952302     2.29914598    -2.56704357     1.43994635     2.47133936
O       2.14212798     4.19960902     6.88810198     0.68320793    -1.33401274    -0.50638333
O       5.02894402     0.60913800     2.53228100     0.86915043     0.01344148    -0.73683756
O       2.17666103     1.35425401     7.47285200     0.56037574    -1.12829819     0.06612263
O       1.98004802     4.62155200     2.44127399     1.09312805     0.04391266     0.93098986
