# total energy = -19070.87865375 eV

CRYSTAL
PRIMVEC
        5.17600016     0.00000000     0.00000000
        0.00000000     5.50899976     0.00000000
        0.00000000     0.00000000     9.26300011
PRIMCOORD
22 1
Ti      1.59325798     3.38022197     3.58468199     0.29820231    -1.35722518    -0.38777906
Ti      4.00118999     2.07644501     5.68267600     0.39921328     0.44258163    -0.20755881
Ti      4.07410300     2.16277002     1.67933702     0.41633298    -0.83115646    -0.71844671
Ti      1.01608001     2.97453702     8.10177598     0.29796680     0.83893996     1.81504164
Ti      1.55163300     0.48336003     1.21323299     0.88509694     0.34136652     0.03258180
Ti      3.55215701     5.12418000     8.00633802    -1.76084251     1.15548967     0.59347459
Ti      1.53289801     0.42954497     5.72703598     1.07758367     1.32753896    -0.83534864
Ti      4.12502202     4.93656301     3.60236302     1.14406703     0.82689614     0.78482053
O       3.02824798     3.43935700     4.78711002     0.76379610    -0.43854886     0.26563928
O       0.71738200     2.12157002     0.56533202    -0.48448600     0.00060781    -2.27883874
O       4.57873701     3.52178901     7.53192199    -0.13767723     0.59541732    -0.42482019
O       3.26564700     0.87034100     0.49422499     0.11366440    -0.95657003    -2.71093593
O       1.54695603     4.66434799     9.13465901    -0.02310883    -0.46920053     0.61933090
O       3.17695298     0.72301202     4.57138700    -0.28863472     0.89727728     2.56227186
O       0.82802100     4.84506202     4.38985999    -1.18874587    -0.02834000     1.61890830
O       4.84924199     3.36704202     2.88943198     1.31647447    -0.70672684    -1.11073138
O       0.44218802     1.73065499     4.85192497     0.88358410     1.80810069     0.11343943
O       2.44891298     1.89813800     2.43591898    -1.35938825     1.57533735     0.97176963
O       2.15497502     4.65937700     6.80688401    -0.05256751    -2.64412990     1.55519017
O       4.83541798     0.68245402     2.32309099     1.89595274    -1.49758381     0.86672974
O       3.23226301     1.30533999     7.13502201    -1.26289626     0.09971770     0.21194743
O       2.62753100     4.78454002     2.70341099    -2.93358737    -0.97978916    -3.33668610
