# total energy = -19957.35735658 eV

CRYSTAL
PRIMVEC
        5.93400000     0.00000000     0.00000000
        0.00000000     9.29699974     0.00000000
        0.00000000     0.00000000     4.64899994
PRIMCOORD
24 1
Ti      4.40237900     7.02332402     2.24192700     4.60541234     0.90544491    -0.00741712
Ti      4.49562300     2.60928899     2.46349399    -1.53020650    -4.88061047    -2.82603192
Ti      1.53402098     6.72415101     2.27266701    -2.07549294     2.84333390     0.12654563
Ti      1.50485998     2.41149502     2.47136100     1.28662601    -3.10483859    -1.70981689
Ti      2.95170397     4.76502301     4.62756700     0.54787426     0.51127794     2.08379092
Ti      2.95754101     9.04994202     0.03488500     0.63026812     1.79839245     0.49367873
Ti      0.03614000     4.56154298     4.58899199    -0.39660618     1.58511345     1.05451778
Ti      5.91559601     0.05147000     4.53551698    -0.00385126    -0.15161287     2.92475332
O       4.51895199     5.71871800     0.84165102    -0.13406765    -2.80537438    -1.90759599
O       4.45228201     0.58142498     1.03858698    -1.43745212     1.39319879    -1.06310527
O       1.45142599     5.76006198     0.66965502    -0.03755920    -1.51592684    -0.36854078
O       1.27183101     0.78723302     1.13574598     1.58160544     0.70441979    -0.88516044
O       4.53215999     8.27056199     3.69576301    -1.81628014     0.57567844     0.33062085
O       4.34528798     3.74351099     3.70687701     1.03961566     2.79653210     2.65087725
O       1.35127300     8.21896102     3.95360002     2.16945112    -0.01519291    -1.74286998
O       1.56382001     3.84995198     3.73543501    -1.15700791     0.01511886     0.30861117
O       3.08322299     5.98922499     3.23585200    -0.85702871     0.28164003    -0.95924809
O       2.96701402     1.65528099     3.30944902     0.04708077    -1.12099008     0.06044100
O       0.13313798     5.91965602     2.89966098    -1.44445529    -1.66022158     2.36789073
O       5.92161397     1.56683499     3.39038101    -0.80760129     1.32189564    -0.92713706
O       3.04607099     7.79354600     1.40660600    -2.02991447     0.40669288    -0.42902523
O       2.74944502     3.32739199     1.39312102     1.68431077     0.52788650    -0.20979181
O       5.90812398     7.85940000     1.35149901     0.31382100    -1.23324397     1.66044861
O       5.91215901     3.31171400     1.42736901    -0.17854210     0.82138626    -1.02643490
