# total energy = -19072.06982595 eV

CRYSTAL
PRIMVEC
        5.17600016     0.00000000     0.00000000
        0.00000000     5.50899976     0.00000000
        0.00000000     0.00000000     9.26300011
PRIMCOORD
22 1
Ti      1.70785401     3.54687598     3.27296801     0.05269581    -0.82741293     1.71256334
Ti      3.75641101     2.25298400     6.01070001     0.67057583    -0.68327657     0.27062542
Ti      4.41361698     2.48275599     1.56456398    -0.60269406    -1.99605405    -1.96683088
Ti      1.53897000     2.72977799     7.89312399    -3.10774085     0.49553224     0.58621508
Ti      1.68757599     0.73765800     1.34393601    -0.23635363     0.70824842    -0.59607089
Ti      3.08051302     5.47233402     7.82997700     1.90637780    -1.70042465     2.98486547
Ti      0.51968101     5.30922000     6.31307602     0.09791664    -1.39164018    -0.02363256
Ti      4.29488802     5.14720101     3.49530702     1.36740907    -0.04403710     0.62706401
O       3.26822299     3.04314501     4.38852700    -0.43665987     0.65079119     0.40959077
O       0.56766701     1.82375801     0.17581200     0.38761091     0.95647876     0.24711370
O       0.23269501     3.06187799     6.43899697     1.05556499     1.08700368    -0.40519675
O       3.20812798     1.01352800     0.22200499    -0.45869809    -1.61488247    -0.79030753
O       1.40474001     4.70108400     8.03055100    -2.37181886    -0.86414835     0.95941547
O       4.12114701     0.37407101     5.12563598    -2.22598275     1.52788710     1.27126315
O       0.85232399     5.02183903     4.53542200     2.14088101    -2.22171241    -1.30936845
O       0.10487801     4.00111898     2.14370498     0.23948524     0.21138358    -0.19456496
O       4.62506002     0.84581199     7.35701901     0.40054408     0.76002943     0.11366826
O       2.49290799     2.31022600     1.93864303     0.13892833     1.25690739     1.28691603
O       3.22321403     3.31384399     7.65202400     1.87270919     0.92897308    -0.32588513
O       5.07129699     1.17504898     2.62791999     0.32863750    -0.24761558     0.20601126
O       2.12772398     1.16961301     6.93685302    -1.35293221     1.08458967    -3.07298132
O       2.59332900     4.95639398     2.66945501     0.13354443     1.92338000    -1.99047373
