# total energy = -19945.61616475 eV

CRYSTAL
PRIMVEC
        4.97260436     0.00000000     0.00000000
        0.00002475     4.78832085     0.00000000
        0.00000000     0.00000000     8.49730808
PRIMCOORD
24 1
Ti      1.80234461     2.83755446     3.15244077    -0.53415202     1.63640570    -2.42821629
Ti      3.17028451     1.95076630     5.34486760     0.53415202    -1.63640570     2.42821629
Ti      4.28856013     1.95076794     1.09617948    -0.53012105    -1.63645095     2.42744444
Ti      0.68406903     2.83755305     7.40112904     0.53012105     1.63645095    -2.42744444
Ti      1.80233228     0.44339413     1.09621356    -0.53391908     1.63631365     2.42599280
Ti      3.17029688     4.34492677     7.40109495     0.53391908    -1.63631365    -2.42599280
Ti      0.68405666     0.44339239     5.34483356     0.53033856     1.63614961     2.42902927
Ti      4.28857245     4.34492856     3.15247485    -0.53033856    -1.63614961    -2.42902927
O       1.57386941     1.68604911     4.33611138    -1.02078413    -2.12449510     0.96479756
O       3.39875975     3.10227164     4.16119699     1.02078413     2.12449510    -0.96479756
O       0.91247934     1.68606848     0.08748455     1.01999197    -2.12476070     0.96561235
O       4.06014987     3.10225233     8.40982362    -1.01999197     2.12476070    -0.96561235
O       3.39874738     0.70811117     0.08745700     1.02039023     2.12427270     0.96490966
O       1.57388178     4.08020959     8.40985117    -1.02039023    -2.12427270    -0.96490966
O       4.06013749     0.70809185     4.33613898    -1.02075790     2.12514251     0.96544600
O       0.91249157     4.08022895     4.16116944     1.02075790    -2.12514251    -0.96544600
O       0.18068135     2.91252819     2.29533496     0.75744393    -0.13022514     0.20132002
O       4.79194781     1.87579261     6.20197341    -0.75744393     0.13022514    -0.20132002
O       2.66698794     1.87574804     1.95334625     0.75725007     0.12997883    -0.20185918
O       2.30564117     2.91257276     6.54396203    -0.75725007    -0.12997883     0.20185918
O       0.18066898     0.51836772     1.95331908     0.75721793    -0.13031821    -0.20206616
O       4.79196013     4.26995309     6.54398914    -0.75721793     0.13031821     0.20206616
O       2.30562885     0.51841229     6.20200053    -0.75763933    -0.12997343    -0.20127297
O       2.66700031     4.26990847     2.29530784     0.75763933     0.12997343     0.20127297
