# total energy = -19516.73485989 eV

CRYSTAL
PRIMVEC
        5.17600016     0.00000000     0.00000000
        0.00000000     5.50899976     0.00000000
        0.00000000     0.00000000     9.26300011
PRIMCOORD
23 1
Ti      1.85851998     3.25177700     3.26243098     0.30058675    -0.57327831     3.64461233
Ti      3.36081498     2.18798103     5.87227698    -0.13845704     0.61677265    -2.85693325
Ti      4.46492903     2.13974202     1.43365198    -0.20880014    -1.89764170    -1.23304857
Ti      0.81115400     3.35410999     7.86729098     0.85266374     0.30858186     2.28717657
Ti      1.84079799     0.54915999     1.35343897    -0.48067357    -0.66240667    -2.63406223
Ti      3.33788499     5.11880398     7.86938801    -1.50357397     0.62387173     2.22124704
Ti      0.74559101     0.63403198     5.82080100    -0.40781208    -0.85507415    -3.04393170
Ti      4.40350298     4.85831003     3.39321402     0.21516028     0.42748103     3.45488696
O       1.79300202     1.89150497     4.77642001    -1.37814497    -0.19421503    -0.08180508
O       3.36829601     3.56934199     4.53839798     0.61565062     0.26738789     0.27528606
O       0.69776000     2.28845501     0.20508402     0.20693429    -0.21647360    -0.24447781
O       3.45444998     0.90526903     0.07860902     0.65091974     0.30684534     0.29186248
O       1.73868102     4.81744601     9.01785599    -0.35647716    -0.42887894     0.70424316
O       4.32354101     0.75103000     4.81397201    -1.25006516     1.34495048     0.13284381
O       0.80165898     4.74349200     4.45463600     1.51208844    -1.02275925     0.57212260
O       0.05729000     3.26504300     2.73345201    -0.24504910    -0.16691814    -1.11449290
O       5.10154201     2.13849502     6.77178300    -0.53295157    -0.10591895     0.25854972
O       2.74609501     1.79339498     2.37957600     0.14678485     1.29809185    -0.48890162
O       2.48347699     3.36443799     7.16040998     1.32126212     0.03012048    -0.01359883
O       0.03479700     0.60600400     2.29943099     1.11144614     0.69174708    -2.00765153
O       5.08402899     4.85122598     7.11676201    -0.67652897    -0.14349512     0.60186668
O       2.50113399     0.59444100     6.62819901     0.17170527    -0.16250201     0.97973131
O       2.63496202     4.74184198     2.50755302     0.07333226     0.51371174    -1.70552495
