# total energy = -19881.03415742 eV

CRYSTAL
PRIMVEC
        7.53071989     0.00000000     0.00000000
        0.00002341     2.67165443     0.00000000
        0.00000000     0.00000000    11.98074018
PRIMCOORD
24 1
Ti      2.72953745     1.58321985     4.44476926    -0.68191106     0.60655637     0.31641961
Ti      4.80120555     1.08843432     7.53597128     0.68191106    -0.60655637    -0.31641961
Ti      6.49476894     1.08843518     1.54555315    -0.68163981    -0.60714335    -0.31528936
Ti      1.03597411     1.58321909    10.43518750     0.68163981     0.60714335     0.31528936
Ti      2.72952605     0.24739269     1.54560119    -0.68191106     0.60655637    -0.31641961
Ti      4.80121700     2.42426159    10.43513945     0.68191106    -0.60655637     0.31641961
Ti      1.03596266     0.24739178     7.53592324     0.68163981     0.60714335    -0.31528936
Ti      6.49478039     2.42426250     4.44481730    -0.68163981    -0.60714335     0.31528936
O       2.38352852     0.94073486     6.11368015     7.62084387    -0.75477024     2.62976128
O       5.14721453     1.73091936     5.86706039    -7.62084387     0.75477024    -2.62976128
O       1.38189171     0.94074571     0.12334846    -7.62203738    -0.75420460     2.62852073
O       6.14885139     1.73090852    11.85739172     7.62203738     0.75420460    -2.62852073
O       5.14720308     0.39509210     0.12330955    -7.62084387     0.75477024     2.62976128
O       2.38353997     2.27656208    11.85743063     7.62084387    -0.75477024    -2.62976128
O       6.14883994     0.39508130     6.11371901     7.62203738     0.75420460     2.62852073
O       1.38190301     2.27657292     5.86702153    -7.62203738    -0.75420460    -2.62852073
O       0.27362253     1.62505167     3.23629687     1.22335885    -0.27050381     5.12086858
O       7.25712052     1.04660250     8.74444362    -1.22335885     0.27050381    -5.12086858
O       4.03899243     1.04657774     2.75411146     1.22864684     0.27061334    -5.12098171
O       3.49175062     1.62507648     9.22662888    -1.22864684    -0.27061334     5.12098171
O       0.27361108     0.28922445     2.75407322     1.22335885    -0.27050381    -5.12086858
O       7.25713197     2.38242977     9.22666712    -1.22335885     0.27050381     5.12086858
O       3.49173922     0.28924922     8.74448181    -1.22864684    -0.27061334    -5.12098171
O       4.03900383     2.38240496     3.23625863     1.22864684     0.27061334     5.12098171
