# total energy = -39034.48192780 eV

CRYSTAL
PRIMVEC
        5.93200024     0.00000000     0.00000000
        0.00000000     9.29399984     0.00000000
        0.00000000     0.00000000     9.29399984
PRIMCOORD
46 1
Ti      4.50365898     6.93524802     7.00996198    -0.84968023    -0.26817310    -0.54550525
Ti      4.41297901     6.93775399     2.32343299     0.89998723    -0.53230108     1.13798045
Ti      4.50010899     2.44290698     6.91161502    -0.18356629    -0.42928363    -0.33359305
Ti      4.36986403     2.42014199     2.08773199     0.84878343     0.28916514     0.55157897
Ti      1.46897202     6.94778301     6.95345701     0.52331456     0.47489167    -0.22725398
Ti      1.51395801     7.11098001     2.30120601    -0.83241501    -1.35767976     0.17185594
Ti      1.48447803     2.17967400     7.11440098    -0.11435191     0.50110459     0.68506606
Ti      1.36386102     2.22298398     2.55404198    -0.31380274     0.81021096    -1.56745460
Ti      3.03064600     4.47608800     4.55407999     0.24722529     1.08583717     1.02703320
Ti      2.96577400     4.89235099     9.12420199    -1.30556862    -0.97273430     0.03891623
Ti      3.02814998     9.08607001     4.69273200     1.14776402     0.74520162    -0.18910908
Ti      2.93371100     0.06826302     9.25509901    -0.66983047    -0.75277121    -0.30452877
Ti      0.06086798     4.63328798     4.69384301    -1.51490869     1.70544447     0.78902969
Ti      5.91902000     4.73185201     9.21825701     1.01637288    -1.72989516     1.89843257
Ti      0.08990002     9.22677898     4.90475401    -1.86244020     0.12567454    -0.44196406
Ti      5.86766102     9.22706199     9.26949798     0.75004044    -0.52571700    -0.67300476
O       4.43379499     5.45499500     5.69885797     0.16375002    -0.26394055    -1.29036696
O       4.32208398     5.54999697     0.90207899     0.60336100    -0.25129766     0.33181487
O       4.49087501     1.03343898     5.51364498    -0.23831333    -0.84627635    -0.75439537
O       4.62180902     0.88181203     1.03142901    -1.43643936     0.48907697    -0.62590084
O       1.38375602     5.49189400     5.59812300     0.45945502     1.17163672     0.40116809
O       1.60107398     5.68292498     0.84629698    -0.31585114     0.19861651     0.14593381
O       1.50465301     0.85919002     5.53970098     0.72010841     0.85008313     0.66761392
O       1.34584100     0.83672401     0.79295502     0.90179471     0.90577401     1.78469156
O       4.27976901     8.25629902     8.36343000     0.45117555     0.76993204     0.62782197
O       4.49466101     8.33125100     3.75292601    -0.19137216     1.00987262     0.90278305
O       4.51232801     3.90609203     8.32314998    -0.34894717    -1.14690938    -0.42720386
O       4.53293799     3.67636798     3.72210001    -1.24028751    -0.14654136    -0.12364080
O       1.46238101     8.65973698     8.05582202     0.46717245    -1.72095337     1.57620484
O       1.46413698     8.50567999     3.76488399    -0.02376086    -0.54447192    -1.06765613
O       1.49656502     3.57757799     8.66627603     0.34866743     0.64179952    -0.95393439
O       1.31448502     3.89105498     3.66763200     2.54868537    -2.78894143    -1.39237321
O       2.91934299     6.03031899     7.68552701     0.04527380    -0.78946086     1.55770523
O       2.87541302     6.06395498     3.27964200     0.05673887     0.35927015    -0.33567127
O       3.04974798     1.35913800     7.86565201     0.93761739     1.31331690    -0.24228311
O       2.96159800     1.55275501     3.15120401    -0.22020864    -0.12282807    -0.01938767
O       5.92951602     6.14375301     8.00156198     0.84472649     0.20724230    -0.32072287
O       0.00632399     6.07348298     3.22094999     0.22672433     0.38491177    -0.05368902
O       5.79244302     1.29270297     7.82315400     0.00850161     1.19940927    -0.03887304
O       3.02031498     7.78780401     6.06313798    -0.36849527     1.06158446    -1.35795846
O       3.12091401     8.00441499     1.44605103    -1.94825543    -0.28929729     0.17850559
O       2.85003998     3.46021902     6.15889901     0.65328465    -2.18087582     0.07984461
O       0.00744801     7.83961999     6.14337401    -0.53220544     0.62318344    -1.18346020
O       5.79703501     7.81195301     1.39924302     1.61263147     0.36045646    -0.63281814
O       0.23372002     3.09153202     6.12202700    -1.68196643     1.11821715    -0.57597437
O       0.00897199     3.28816598     1.39095701    -0.29048951    -0.74156428     1.12474209
