# total energy = -19517.72153409 eV

CRYSTAL
PRIMVEC
        5.93400000     0.00000000     0.00000000
        0.00000000     9.29699974     0.00000000
        0.00000000     0.00000000     4.64899994
PRIMCOORD
23 1
Ti      4.49722699     7.15758100     2.15671999     0.34220033    -0.51148465     0.55005996
Ti      4.44099598     2.31725802     2.31470898     0.94875619    -0.84106832     0.36329470
Ti      1.38942398     7.01261802     2.18714598    -1.22402811    -0.27985234     0.78051162
Ti      1.42652301     2.40486099     2.43552501    -0.95898635    -1.40011017     0.05504451
Ti      2.99151699     4.48257698     0.25480102    -0.49988280     0.43805803    -0.59527977
Ti      3.02139799     0.02353098     4.61385998    -0.85356826     0.74228573    -0.07242055
Ti      5.88406297     4.61922901     0.01553400     0.16990910     0.41470212    -0.67763917
Ti      0.04520502     0.00891500     4.62029398     1.06462968     1.62367899    -0.78569805
O       4.43853298     5.42717398     1.05612201    -0.67528301     0.73096927    -0.64995224
O       4.54946102     0.81955602     0.91385800    -0.97696480     0.31266837     0.39459918
O       1.44571399     5.50504199     0.99324601     1.16282195     0.45865284    -0.16855413
O       1.47589699     0.87272002     0.97776398     0.60163348    -0.02859376    -0.39561219
O       4.50212098     8.48799102     3.46483302    -0.33693805    -0.34902353     1.33487715
O       4.53562801     3.64193098     3.75482602    -1.32476757     1.09274419     0.29017841
O       1.57285899     8.41332798     3.79179900    -0.18696298    -1.12737722    -1.48321443
O       1.45711501     3.75665602     3.84481901     0.96521203    -0.17621679    -1.01199249
O       3.05823699     1.44129700     3.31860098    -0.84557367     0.07923911    -0.22496852
O       5.90287702     6.01311999     3.14418400     0.17268435     0.82951172     0.43301121
O       5.91300500     1.45885600     3.24744399     0.26843227    -0.18495675     0.04777600
O       2.91475401     7.81487402     1.38329299     0.52785256    -0.43291917    -0.01747965
O       2.87740299     3.24445801     1.52714501     0.73126366    -0.28133818    -0.16680064
O       5.91741802     7.87889901     1.21129800     0.51417120    -1.25437459     0.95336129
O       5.91769600     3.12976799     1.29885402     0.41338880     0.14480510     1.04689806
