# total energy = -19518.31467586 eV

CRYSTAL
PRIMVEC
        7.60600008     0.00000000     0.00000000
        0.00000000     7.60600008     0.00000000
       -1.89786986    -1.89786986     4.85670466
PRIMCOORD
23 1
Ti      3.88843698     6.60646501     1.24638499    -1.51082577    -0.61916687     0.29461614
Ti      3.85768099     2.81392903     1.19283098    -1.02375272     0.80527984    -0.03826420
Ti     -0.01911499     6.70084801     1.28040399     1.97265392    -1.04623240    -0.38640327
Ti      0.02918698     2.84741298     1.07450203    -0.44050341     1.03825941     0.42804101
Ti      5.56464725     2.94502221     3.58867183    -0.49187536    -0.81383261     1.56162899
Ti      5.74588321    -1.00518176     3.63771179    -0.77210205     1.29455941     0.35606347
Ti      1.85888622     2.79489621     3.54001779     0.31375466     0.28955286     1.24893336
Ti      1.87697620    -1.00844076     3.71989482     0.60981859     0.22063210    -0.93433846
O       3.71858098     4.74749502     0.67007202     0.10523966     0.11536287     0.95089972
O       4.01345299     0.93295701     0.91304603    -0.21568118    -0.44028538    -0.62687812
O       0.16511701     4.68535500     0.63968301    -0.08509840     2.03121416     1.26940450
O       0.00828401     0.87761401     0.78149399    -0.27575657     0.34828459     0.51556808
O       5.73449822     4.80650521     4.05154481     0.09377768    -1.17820769     0.12431854
O       5.51257922     0.97445022     4.11747881     0.42777567    -0.74496328    -2.09423912
O       1.54703921     4.73413922     4.09798180     0.67933070     0.40153139    -0.24813932
O       2.07056723     0.95132824     4.07062583    -1.01797031    -0.15495145     0.08611039
O       3.69753523     2.96127721     3.32484680     0.55778021     0.13769779    -1.17974290
O       3.84588224    -0.76810977     3.21563483     0.35080864    -1.32677020    -0.19968377
O       0.02250321    -0.75977375     3.34988181    -0.53635957     0.08645723    -0.61056292
O       5.80040503     6.35502798     1.66100298    -0.66716938     0.37391284    -0.15234306
O       5.63974702     2.99668198     1.70389502     2.05195988     0.00127861    -0.77217121
O       1.92993102     6.62797400     1.79514598    -0.43472923    -0.15893691    -0.59649641
O       1.84168802     2.89479900     1.49999297     0.30892407    -0.66067631     1.00367857
