# total energy = -19072.28972587 eV

CRYSTAL
PRIMVEC
        5.17600016     0.00000000     0.00000000
        0.00000000     5.50899976     0.00000000
        0.00000000     0.00000000     9.26300011
PRIMCOORD
22 1
Ti      1.90226600     3.31294301     3.28897203    -0.53963259     4.04936068     2.06980720
Ti      3.68630799     2.28907103     6.09507198    -1.57618478     1.99435070    -0.84663862
Ti      4.51226700     2.40588098     1.61991798    -0.29515452    -2.94236229    -2.76278610
Ti      1.16532398     2.10549801     7.84790002    -0.22701024     2.72894574    -0.92253298
Ti      1.79630900     0.78597998     1.30355100     0.86957647     0.44699931    -1.61666939
Ti      3.18633201     5.33641199     8.07227298    -0.97626032     0.50475736     0.90530993
Ti      0.47303498     5.39890200     6.05610501     2.41148149    -1.03082069     0.22914837
Ti      4.29788200     5.27392298     3.37680598     0.00307530    -0.50281695     2.07786504
O       3.30630703     3.47265098     4.52698400    -0.61049196     0.23826293     0.47800296
O       0.72330301     2.52737198     0.32747901     0.20024839     0.08840896     0.22761522
O       4.99874801     3.39602199     6.90764799     0.73416438     0.42375961    -0.39502932
O       3.67189998     0.67054399     0.39428298    -0.22854647    -0.20379111    -0.10958457
O       1.43248202     0.40174200     8.63538398    -0.18290655    -1.41250804     0.78141485
O       4.22579298     1.02844403     4.76623901     0.76798314    -0.74336945     0.24696895
O       0.87080800     4.84051602     4.47073098    -0.13696272    -1.50704342    -1.58451644
O       5.12524799     3.76227001     2.44604902     2.06271558     1.38151158     1.48360986
O       4.45054001     0.80360201     7.11421302     0.38990460     0.73938115     1.59006540
O       2.80324197     2.05192903     2.46238499    -0.02714803    -1.69833588    -1.41962280
O       2.42977402     3.78154000     7.34467601    -0.30328307    -1.61560264     0.10049983
O       0.16627702     0.87708801     2.37633198     1.14007616     0.16345486    -0.19311280
O       2.02857897     1.13684302     6.26338702    -1.39267223    -0.39310716     0.14955650
O       2.77586398     4.85612802     2.39543200    -2.08297203    -0.70943499    -0.48937033
