# total energy = -19958.10139942 eV

CRYSTAL
PRIMVEC
        7.60600008     0.00000000     0.00000000
        0.00000000     7.60600008     0.00000000
       -1.89786986    -1.89786986     4.85670466
PRIMCOORD
24 1
Ti      3.81994001     6.59836400     1.20098698     2.08584987    -0.87096769    -0.65354510
Ti      3.55535700     2.76573400     1.16536901     6.74547959    -0.18542854     0.15998490
Ti      0.02709800     6.84240700     1.29540998    -2.49260702    -2.34631582    -1.79259899
Ti      0.03900899     2.89090902     1.23278497    -4.50354597     3.84737166     0.12083238
Ti      5.69857021     2.99592520     3.67136281    -0.64102845    -0.13501176    -0.82966856
Ti      5.71463121    -0.83639676     3.68734280    -1.18113103    -0.02210918    -0.89725183
Ti      1.93157724     2.60913923     3.60538282     0.94316609     1.65043184     2.20940967
Ti      1.86905722    -1.09861277     3.56987481     1.50073727    -0.61711152     1.24504534
O       3.92710301     4.60308101     0.73580001    -1.41037505    -0.50776170    -0.33639555
O       3.93977903     0.78901699     0.81894402    -1.06415994     1.55224163    -1.25519760
O      -0.10139999     4.81500200     0.88403600     1.27789582    -0.43119267    -0.95668470
O      -0.05641400     1.11477300     0.88335902     0.66481348    -1.86763949    -0.52451604
O       5.32846121     4.79995321     4.16896580     1.63961083     0.99465348     0.12111546
O       5.58663821     1.05349120     3.91945179     1.45259284    -0.93776189     1.42466036
O       2.14612924     4.53514222     4.12887581    -0.52366577     2.52612291    -1.37989718
O       2.18266523     0.77456325     3.99533782    -2.08663482    -0.79492420     0.29917907
O       3.76437920     2.60220722     3.33172082    -1.04492577     0.95928177    -2.16021751
O       4.01652222    -0.83257478     3.09093781    -2.68324796    -0.70696879     0.46829242
O       0.05863120     3.16623423     3.28809782    -0.37822896    -1.44150366    -0.98806477
O      -0.02006878    -0.89556878     3.27935079     1.99957390    -0.21522944     0.37206036
O       5.81156098     6.51721001     1.54773101     0.14538308     0.83388517     1.32491566
O       5.57768797     2.94602802     1.61416302     1.39704310    -0.42452014     1.59083956
O       1.95981303     6.64683197     1.58726298    -0.89125139    -0.30520060     0.99765782
O       1.86374698     3.01406698     1.38956702    -0.95134349    -0.55434162     1.44004508
