# total energy = -4987.22564239 eV

CRYSTAL
PRIMVEC
        3.68997339     0.00000000     0.00000000
        0.00000000     3.46898081     0.00000000
        0.00000000    -0.00006832     4.93366154
PRIMCOORD
6 1
Ti      1.84498654     1.73445635     2.46683087     0.00000000     0.00000000     0.00000000
Ti      0.00000000     0.00000000     0.00000000     0.00000000     0.00000000     0.00000000
O       1.84498654     0.67603999     0.96149802     0.00000000    -0.65970572    -0.02008084
O       1.84498654     2.79287271     3.97216378     0.00000000     0.65970572     0.02008084
O       0.00000000     1.05838907     3.42832986     0.00000000     0.65978440    -0.01997362
O       0.00000000     2.41052362     1.50533189     0.00000000    -0.65978440     0.01997362
