# total energy = -19518.05980127 eV

CRYSTAL
PRIMVEC
        5.93400000     0.00000000     0.00000000
        0.00000000     9.29699974     0.00000000
        0.00000000     0.00000000     4.64899994
PRIMCOORD
23 1
Ti      4.54053798     6.99062399     2.34039201    -0.79227828     0.55515691    -0.69953675
Ti      4.44481801     2.32020300     2.36029199     0.34488508    -0.13736304    -0.03195317
Ti      1.48698998     7.06098599     2.31279399     0.17279851     0.62566662    -0.60326047
Ti      1.45947398     2.30125798     2.26928101    -0.55223023    -0.00081813     0.27271059
Ti      2.92670601     4.48205299     0.05089299     0.25258861    -0.29826608     0.18856709
Ti      2.99316702     0.04472701     4.63050599    -0.14591504     0.00140202     0.28841643
Ti      0.00241998     4.65868098     4.63660503    -0.33666423    -0.44890115     0.27210175
Ti      0.01193999     0.02993699     0.02333698    -0.26834974     0.36236910    -0.08354520
O       4.47589601     5.53396502     0.93427201    -0.48729442     0.11165302    -0.51900282
O       4.39159501     0.94681399     0.99890800     0.33169634    -0.63268624    -1.02737875
O       1.50773902     5.46802901     0.85240797     0.22174462     1.21766051     0.20621129
O       1.47669600     0.92180603     0.91528497    -0.39540573    -0.63320638    -0.42627055
O       4.37368400     8.43190998     3.74905402     0.75110564    -0.57825571    -0.06736087
O       4.45716801     3.62824100     3.77397398    -0.27216937     1.13001517    -0.35664891
O       1.38399499     8.35392201     3.69640099     0.60727551     0.19252582     0.72126824
O       1.50703198     3.68524498     3.63894202     0.22937154     1.51059617     0.74051758
O       2.87828402     1.41437601     3.20333300     0.86951630    -0.33798655     0.48162385
O       0.00957102     6.15605198     3.15963502     0.40257346    -1.76546098     1.53090558
O       0.01365701     1.48875002     3.27306602    -0.51122703    -0.69285317    -0.00126858
O       3.01748198     7.95347200     1.50748200    -0.73122047    -0.86026007    -0.15050781
O       2.90772098     3.20755900     1.34815900     0.75650239    -0.06429046     0.42413062
O       5.92470098     7.85649899     1.45692303     0.23000172     1.06598697    -1.50141605
O       0.04123799     3.27221298     1.34391701    -0.67730519    -0.32268437     0.34169691
