# total energy = -19959.97442852 eV

CRYSTAL
PRIMVEC
        7.60600008     0.00000000     0.00000000
        0.00000000     7.60600008     0.00000000
       -1.89786986    -1.89786986     4.85670466
PRIMCOORD
24 1
Ti      3.81559901     6.80913598     1.07507698     1.43164759     0.07294942    -0.43581603
Ti      3.77364298     2.89575301     1.22624000     0.90448897    -0.23629475    -0.98854274
Ti     -0.07463299     6.64603498     1.22099702    -0.57780783    -1.87947094     1.08403200
Ti     -0.08444600     2.67107001     1.29324602    -0.30842528     0.99669674     0.44420066
Ti      5.55790124     2.83080020     3.75708582     0.80082848    -1.05963685     0.04733146
Ti      5.65200822    -0.97066877     3.63729983     1.00834898     0.61948105     0.00738678
Ti      1.92388120     2.84954022     3.62583081    -0.35135629    -0.15798972     0.41170216
Ti      1.97179524    -0.90084479     3.41651279    -0.42258693     0.37607334     1.85021871
O       4.04055602     4.77957200     0.90265701    -0.90240946     1.04152342    -0.89202298
O       4.11617899     1.13431699     0.65166802    -1.49784710    -1.81080575    -0.48015292
O      -0.25381902     4.75454699     0.88377400     0.50083051    -0.54214044     0.05497843
O      -0.11051301     0.78470901     0.82402598     0.32367115     2.95923234    -0.20492343
O       5.58535221     4.68112725     4.14610783     0.09777755     0.56204156    -1.21607105
O       5.87795823     0.89197223     4.25762781    -0.25109171    -0.43421192    -0.43209024
O       2.23019524     4.88135622     3.92354879    -0.99057108    -1.07982825     0.75174456
O       1.89161425     1.05799921     4.02826180    -0.53085150    -1.27460173     0.29265413
O       3.82106922     2.42635220     3.37134783     0.33829971     1.43466453    -1.08754387
O       3.88513523    -0.90388380     3.11780382    -1.64859684     0.31164867     0.18780604
O       0.06436923     2.79401725     3.27161480    -0.50450411     0.55924394    -0.06553667
O       0.03795624    -1.03247080     3.31845381    -0.07064931    -0.13547713    -1.16150914
O       5.60301598    -0.57759400     1.71061002     2.11018845    -1.36632818     0.01276245
O       5.67277499     2.77247100     1.70859200     0.84256496     0.26422723     0.67335700
O       1.91968102     6.71417200     1.43541001     0.14116107     0.15989954     0.76202744
O       1.96121201     2.69524902     1.63933900    -0.44311051     0.61910362     0.38400726
