# total energy = -19919.79414295 eV

CRYSTAL
PRIMVEC
        6.35810642     0.00000000     0.00000000
        1.00939888     6.69124034     0.00000000
        0.00000000     0.00000000    11.41192933
PRIMCOORD
24 1
Ti      2.90267659     3.96522276     4.23374443    -0.13315363    -1.55018989     0.71956000
Ti      4.46482863     2.72601739     7.17818517     0.13315363     1.55018989    -0.71956000
Ti      5.89468644     2.72601965     1.47217473     0.13719360     0.09405819    -0.41833150
Ti      1.47281880     3.96522076     9.93975499    -0.13719360    -0.09405819     0.41833150
Ti      2.39797729     0.61960271     1.47222050    -0.13315363    -1.55018989    -0.71956000
Ti      4.96952795     6.07163764     9.93970922     0.13315363     1.55018989     0.71956000
Ti      0.96811946     0.61960026     7.17813940    -0.13719360    -0.09405819    -0.41833150
Ti      6.39938577     6.07164009     4.23379019     0.13719360     0.09405819     0.41833150
O       2.36780730     2.35609939     5.82342024     1.69078069     1.78996180    -0.39885487
O       4.99969792     4.33514076     5.58850929    -1.69078069    -1.78996180     0.39885487
O       1.52214013     2.35612644     0.11749220    -1.05009548     0.65323631     0.54232273
O       5.84536517     4.33511377    11.29443707     1.05009548    -0.65323631    -0.54232273
O       4.49499860     0.98952052     0.11745519    -1.69078069    -1.78996180    -0.39885487
O       2.87250662     5.70171964    11.29447408     1.69078069     1.78996180     0.39885487
O       5.34066585     0.98949353     5.82345732     1.05009548    -0.65323631     0.54232273
O       2.02683931     5.70174670     5.58847227    -1.05009548     0.65323631    -0.54232273
O       0.84497832     4.06999167     3.08264687     0.47469395     0.82231340     1.14365385
O       6.52252690     2.62124842     8.32928272    -0.47469395    -0.82231340    -1.14365385
O       3.80548633     2.62118618     2.62335423     0.58800200     1.19213665     0.39296755
O       3.56201889     4.07005391     8.78857517    -0.58800200    -1.19213665    -0.39296755
O       0.34027900     0.72437143     2.62331773     0.47469395     0.82231340    -1.14365385
O       7.02722622     5.96686866     8.78861160    -0.47469395    -0.82231340     1.14365385
O       3.05731957     0.72443366     8.32931909    -0.58800200    -1.19213665     0.39296755
O       4.31018564     5.96680643     3.08261044     0.58800200     1.19213665    -0.39296755
