# total energy = -4986.15823674 eV

CRYSTAL
PRIMVEC
        3.51881043     0.00000000     0.00000000
        1.03240645     3.36395062     0.00000000
       -2.27564020    -1.68199878     4.54332676
PRIMCOORD
6 1
Ti      0.77419715     2.52309193     1.13583142     0.00125778    -0.00128941    -0.00252534
Ti      1.50137931    -0.84114025     3.40749466    -0.00125778     0.00128941     0.00252534
O       0.25813842     0.84098299     0.74007068     0.00056950     0.00140382     0.13523571
O       2.01743789     0.84096861     3.80325541    -0.00056950    -0.00140382    -0.13523571
O      -0.25811132    -0.84096296     3.01173391     0.00141154     0.00050162     0.13129600
O       2.53368761     2.52291447     1.53159222    -0.00141154    -0.00050162    -0.13129600
