# total energy = -19073.29458272 eV

CRYSTAL
PRIMVEC
        5.93400000     0.00000000     0.00000000
        0.00000000     9.29699974     0.00000000
        0.00000000     0.00000000     4.64899994
PRIMCOORD
22 1
Ti      4.38153101     6.80887102     2.36855699    -0.01932982     0.88459197    -0.64166583
Ti      4.30751901     2.41378398     2.23306402     2.09663668    -1.92648923     0.69039493
Ti      1.50314698     7.04780900     2.49787802    -0.11982168     0.68617601     0.48563992
Ti      1.61692998     2.52507000     2.18047999    -1.99615818    -0.59922075     0.41286430
Ti      3.05875002     4.53272499     4.58512100    -2.74505653     3.11174200     1.88034820
Ti      2.98321902     9.27463603     4.58389998     1.44084803     0.15424876     0.61159034
Ti      5.79017502     4.57547299     4.52342999     2.18223593     0.80867369     1.15353280
Ti      0.03456797     9.14989201     0.23278301    -1.17654984    -0.70801548     1.40894371
O       4.48503803     5.67874802     0.78955399    -0.03484695    -1.35534134     1.08148635
O       4.48003100     1.00422200     0.91613600     0.69264388    -0.95253802    -0.02910876
O       1.58500498     0.79139601     1.03318498    -1.01720155     1.12367560     0.45064359
O       4.52240201     8.13604698     3.81021701     0.01727885     3.09911403     0.76143480
O       4.35347302     4.04435302     3.60821799     1.80009170    -3.61451010    -4.08459869
O       1.45209201     8.55214900     3.78325199    -0.31341528    -1.07884274    -1.70498964
O       1.57646999     3.86227398     3.71437598    -1.48676229    -0.07035646    -0.72689561
O       2.95860598     6.16991098     3.41611199    -1.64308183    -0.51751004    -0.45781903
O       2.90988902     1.60449902     3.35650197     0.40932517    -0.59234151    -0.43189201
O       5.89338798     6.14923602     3.33333401     2.15640842    -1.44468129    -0.03879076
O       3.04450002     7.80643898     1.34715600    -1.28678002    -0.11313372     0.92799606
O       3.05180902     3.08704502     1.17658000    -0.61534440     1.73195615    -0.68289117
O       5.92792399     7.71479797     1.53313497     0.92861056     1.67170696    -1.61237230
O       5.84961999     3.27310999     1.33169402     0.73026993    -0.29890448     0.54614879
