# total energy = -4988.08758159 eV

CRYSTAL
PRIMVEC
        3.24124262     0.00000000     0.00000000
        0.00000000     3.75370469     0.00000000
        0.00000000    -0.00005922     4.51777280
PRIMCOORD
6 1
Ti      1.62062136     1.87682258     2.25888640     0.00000000     0.00000000     0.00000000
Ti      0.00000000     0.00000000     0.00000000     0.00000000     0.00000000     0.00000000
O       1.62062136     0.73153016     0.88044736     0.00000000    -0.58463977    -0.72822539
O       1.62062136     3.02211496     3.63732539     0.00000000     0.58463977     0.72822539
O       0.00000000     1.14526849     3.13933476     0.00000000     0.58451198    -0.72808552
O       0.00000000     2.60837667     1.37843803     0.00000000    -0.58451198     0.72808552
