# total energy = -19518.25299701 eV

CRYSTAL
PRIMVEC
        7.60600008     0.00000000     0.00000000
        0.00000000     7.60600008     0.00000000
       -1.89786986    -1.89786986     4.85670466
PRIMCOORD
23 1
Ti      3.76938702     6.65314400     1.08380898     0.79191318     1.31713087     0.86090722
Ti      3.69562998     2.83781201     1.28493301     1.64533437    -0.43868256     0.39397723
Ti      0.04278901     6.57654797     1.17457299    -1.76578057     1.13228777    -0.75503403
Ti      0.05791199     2.76609500     1.19523599    -0.11364666    -0.98238829     0.58031388
Ti      5.62820625     2.82726525     3.76732281     0.69903102     0.74698674    -0.14012209
Ti      5.65096722    -0.88964078     3.47903080     0.06361117    -0.50869218     0.98251556
Ti      2.08501922     2.84357322     3.77440383     0.39018716     0.37525882     0.21615401
Ti      1.87130623    -0.85424078     3.54407383    -0.09119809    -0.45079940     1.03050701
O       4.00998799     4.81005499     0.93124999    -0.57575866    -1.19632497    -0.65721226
O       3.77354699     1.05041499     0.77930399     0.09591504     0.03060282    -0.76803251
O      -0.28099502     4.67981600     0.86336999     1.18127039     1.31895456     0.63139761
O       0.07990402     0.94294798     0.74823800    -0.28372777    -0.59085361    -0.12976465
O       5.61654620     4.70406020     3.93021282     0.57597746     0.71781370     0.95885060
O       5.83029523     0.95069222     4.17492179     0.32024516    -0.49899192    -1.18975812
O       1.73981621     4.82428721     4.05023483     0.28148216    -0.91084603    -0.83218644
O       1.79664720     1.02780822     4.06108180    -0.40088964    -0.21846363     0.34251709
O       3.93053123     2.65166423     3.34496480    -2.71109174     0.26015486    -1.07337555
O       3.74741722    -0.96315879     3.14602479    -0.89817846     0.43030281     0.13901626
O      -0.08366975    -0.90649576     3.14435180     1.26046322    -0.17418510    -0.49562326
O       5.62083201     6.94014000     1.52742102     0.46931623    -0.63723967     0.48763535
O       5.95060701     2.76344700     1.95647699     0.46354308    -0.39027535    -1.36694524
O       1.84815297     6.66371998     1.37994700     0.44414332    -0.36948257     1.39697780
O       1.97227499     2.68204202     1.78581801    -1.84216113     1.03773259    -0.61271596
