# total energy = -4978.57929203 eV

CRYSTAL
PRIMVEC
        2.56629296     0.00000000     0.00000000
        0.00000000     4.02099633     0.00000000
        0.00000000    -0.00005218     4.02099633
PRIMCOORD
6 1
Ti      1.28314644     2.01047203     2.01049812     0.00000000     0.00000000     0.00000000
Ti      0.00000000     0.00000000     0.00000000     0.00000000     0.00000000     0.00000000
O       1.28314644     0.78362278     0.78363295     0.00000000     2.74912659     2.74912659
O       1.28314644     3.23732128     3.23736329     0.00000000    -2.74912659    -2.74912659
O       0.00000000     1.22682809     2.79413189     0.00000000    -2.75120662     2.75120662
O       0.00000000     2.79411597     1.22686435     0.00000000     2.75120662    -2.75120662
