# total energy = -19941.98894470 eV

CRYSTAL
PRIMVEC
        4.68405602     0.00000000     0.00000000
        0.00002567     4.98525208     0.00000000
        0.00000000     0.00000000     8.38343031
PRIMCOORD
24 1
Ti      1.69776023     2.95425577     3.11019291    -0.08149732     1.07339894    -1.31818631
Ti      2.98632146     2.03099636     5.27323764     0.08149732    -1.07339894     1.31818631
Ti      4.03970624     2.03099807     1.08148886    -0.07716758    -1.07312126     1.31907668
Ti      0.64437545     2.95425425     7.30194178     0.07716758     1.07312126    -1.31907668
Ti      1.69774749     0.46162983     1.08152248    -0.08147957     1.07158503     1.31863317
Ti      2.98633420     4.52362245     7.30190816     0.08147957    -1.07158503    -1.31863317
Ti      0.64436271     0.46162797     5.27320402     0.07690789     1.07144568     1.31901009
Ti      4.03971898     4.52362430     3.11022653    -0.07690789    -1.07144568    -1.31901009
O       1.48254234     1.75539205     4.27800040    -2.38066320    -2.07068781    -0.31240920
O       3.20153935     3.22986012     4.10543014     2.38066320     2.07068781     0.31240920
O       0.85953113     1.75541213     0.08631212     2.38069766    -2.07157767    -0.31176514
O       3.82455061     3.22984005     8.29711819    -2.38069766     2.07157767     0.31176514
O       3.20152661     0.73723404     0.08628491     2.38118745     2.07102334    -0.31257607
O       1.48255508     4.24801809     8.29714539    -2.38118745    -2.07102334     0.31257607
O       3.82453786     0.73721396     4.27802761    -2.37993224     2.07106293    -0.31159648
O       0.85954378     4.24803822     4.10540294     2.37993224    -2.07106293     0.31159648
O       0.17019819     3.03231293     2.26457373    -0.85627614     0.51089896    -0.57707995
O       4.51388350     1.95293920     6.11885682     0.85627614    -0.51089896     0.57707995
O       2.51222995     1.95289274     1.92716820    -0.85604629    -0.51144146     0.57832256
O       2.17185174     3.03235939     6.45626220     0.85604629     0.51144146    -0.57832256
O       0.17018545     0.53968684     1.92714143    -0.85585294     0.51077272     0.57788059
O       4.51389624     4.44556529     6.45628898     0.85585294    -0.51077272    -0.57788059
O       2.17183900     0.53973330     6.11888354     0.85603060     0.51095501     0.57755637
O       2.51224269     4.44551883     2.26454696    -0.85603060    -0.51095501    -0.57755637
