# total energy = -19960.25731752 eV

CRYSTAL
PRIMVEC
        5.93400000     0.00000000     0.00000000
        0.00000000     9.29699974     0.00000000
        0.00000000     0.00000000     4.64899994
PRIMCOORD
24 1
Ti      4.45816402     6.85955297     2.18011798    -1.14562434     2.09648292     1.61050748
Ti      4.44145102     2.52730800     2.31430998     1.86019434    -3.04483210    -0.05352473
Ti      1.47200299     6.89961899     2.22268399     1.14836231     1.80042980     1.50261701
Ti      1.49512899     2.33116898     2.43423302    -1.04888629    -2.03544234     0.66493355
Ti      3.03596598     4.62975700     0.06334199    -2.52091822     0.45773701    -0.52671150
Ti      2.96790399     0.04907399     0.08308998     0.42795642    -0.51385136    -1.03124903
Ti      5.92557000     4.64872102     4.53926001     1.98487901    -0.42128749     0.05550988
Ti      5.91791899     9.28193301     0.13979302    -0.52871439     0.28797934    -1.90238796
O       4.45086900     5.58247899     0.83071499     0.47947621    -0.48876612    -0.35449175
O       4.46210798     0.89362803     1.09486498    -0.39452718    -0.17219224    -0.48954234
O       1.46946098     5.53400598     0.82589699    -0.27117409    -0.32441009    -0.27988628
O       1.42124801     0.79667900     1.04051699     0.96579001     0.95494921     0.33050104
O       4.49645799     8.50429201     3.77305602    -0.56167235    -0.55650597    -0.34201007
O       4.33362401     3.80176801     3.71809699     1.03889010     0.07326130     0.11968721
O       1.46278298     8.32541698     3.68790298     0.17823562     0.39040699     0.23063575
O       1.51323600     3.74583599     3.72448300    -0.35729863     0.67882265     0.32211667
O       2.98055202     6.02944098     3.19114498     0.48620530     0.04048152    -0.30468227
O       2.89017601     1.47449102     3.44720100    -0.13742089     0.79010904    -1.23619123
O       0.02543998     5.94491301     3.04192801    -0.54329538    -0.27070101     0.91060229
O       5.89700199     1.57036498     3.29594198     0.40860578     0.29957914    -0.11558579
O       3.01260503     7.78600401     1.31175002     0.01501062    -0.41259151     0.71370508
O       2.98641202     3.13186703     1.40195400    -1.00505925     1.38174760    -0.88742970
O       0.05244999     7.84700201     1.32469999    -0.63864375    -1.28916832     1.13129121
O       5.87252998     3.29284603     1.36614902     0.15962957     0.27776152    -0.06841425
