# total energy = -19959.27811448 eV

CRYSTAL
PRIMVEC
        7.60600008     0.00000000     0.00000000
        0.00000000     7.60600008     0.00000000
       -1.89786986    -1.89786986     4.85670466
PRIMCOORD
24 1
Ti      3.85878998     6.53958002     1.26382799     0.83371342     0.57542184    -0.51342995
Ti      3.64865899     2.78160000     1.18147902     3.51884883    -0.58022595     0.53916439
Ti      0.05336800     6.79675397     1.31258898    -1.13634317    -1.71095795    -1.68037106
Ti      0.07230302     2.91239499     1.25335298    -4.22557619     2.27851452    -0.71937153
Ti      5.70534722     2.95274820     3.56942581    -0.00613954    -0.03067250     0.40003038
Ti      5.69064525    -0.88061079     3.65439284    -0.69889372     0.42416199    -0.04312256
Ti      1.94591323     2.69696223     3.61005482     0.51241925     0.63163055     0.76838012
Ti      1.85454623    -1.12947179     3.63509983     0.55817745    -0.00285470     0.25962547
O       3.87691002     4.71850298     0.83236602    -0.57658244    -1.51023339    -1.33654759
O       3.79781802     0.83677301     0.90682200    -0.23786750     0.86649962    -1.86949737
O      -0.03387502     4.82789699     0.91406702     0.48373164    -0.06885777    -1.02027762
O      -0.15605300     1.07036000     0.82676600     0.87630684    -0.28624539    -0.07200788
O       5.50702424     4.83763322     4.11085081     0.59343885     0.38276104     0.65249455
O       5.60018224     1.09880322     3.75779582     1.29590898    -1.79298491     2.16064303
O       1.94352823     4.54313724     3.96379880     0.42182563     2.21819179     0.30396338
O       1.99415324     0.80379225     3.89459279    -0.82881907     0.91716709     1.33750404
O       3.89868021     2.62927024     3.14572179    -4.71547128     0.85693357    -0.46951009
O       3.88051721    -0.87288978     3.06465183    -1.13790666    -0.60685616     2.15431271
O      -0.03480875     3.11130722     3.16978983     1.48983142    -1.34158979     0.12199812
O      -0.03422978    -0.88141276     3.29773382     1.96901838    -0.27022073     0.49324241
O       5.81662299     6.58254101     1.72620498    -0.69390732     0.20345713    -0.90594653
O       5.61291700     2.96190598     1.66628603     0.55912927     0.03520176    -1.04640158
O       1.97809298     6.62552502     1.71295300    -1.61164468    -0.22928335    -0.35833787
O       1.81617601     3.04805599     1.51848999     2.75680160    -0.95895807     0.84346279
