# total energy = -19960.44230276 eV

CRYSTAL
PRIMVEC
        5.93400000     0.00000000     0.00000000
        0.00000000     9.29699974     0.00000000
        0.00000000     0.00000000     4.64899994
PRIMCOORD
24 1
Ti      4.43728502     6.88385401     2.24854600    -1.46250470     0.05588578     1.59592006
Ti      4.51101301     2.46555503     2.39216200     0.59597371    -0.60899661    -0.98221525
Ti      1.42501702     6.99647198     2.19663001     1.38819953    -0.36632500     0.96529610
Ti      1.52618100     2.23007798     2.38433399    -0.89444881     0.27875654     0.28246355
Ti      2.98326998     4.60874998     0.02330200    -0.85044899     0.77748157    -0.44406722
Ti      2.92059602     9.25601999     4.62807702     2.01712888    -0.42415813    -0.02714906
Ti      0.00525902     4.72679800     4.62196698     0.55310440    -0.00610457     0.29622462
Ti      0.00686401     9.24572803     0.04107199    -2.52395804     0.08627674    -0.79758658
O       4.39793598     5.64138901     0.83207000     0.57116178    -0.24228028    -0.02635613
O       4.47078802     0.92922498     0.87851398    -0.45559605    -0.28432658     0.06771234
O       1.49112899     5.66185298     0.86819100    -0.26427454    -0.36856520    -0.30764418
O       1.39810402     0.88242201     0.88811500     1.57156065     0.60477485     0.88689362
O       4.53758802     8.36258401     3.71384601    -1.03285546     0.37309343     0.55272825
O       4.44407500     3.79330398     3.83987301     0.31428868    -1.02041697    -0.77066403
O       1.51829298     8.37053400     3.62127301     0.01776941     0.61575192     1.32836351
O       1.44433300     3.66499601     3.93465199     0.32892186    -0.21729326    -1.12007605
O       2.98337899     5.98377600     3.10754699    -0.54738087    -0.08266408     0.68466086
O       2.96909898     1.41438501     3.28893202    -0.51663200     0.51688089    -0.80348521
O       5.90219798     6.02236202     3.26244903     0.61784609     0.37411622    -0.88912303
O       5.88204602     1.41375597     3.26562398     1.18181392     0.78390933    -0.79366050
O       3.01124700     7.90036303     1.52040001    -0.95346439     0.82153744    -1.44777690
O       3.09160701     3.45877802     1.54699799    -1.23594903    -1.62483804     0.48089623
O       5.83904899     7.83315101     1.37106301     1.29418557     0.23848302    -0.02876783
O       5.90569997     3.25989299     1.40524903     0.28555865    -0.28097874     1.29741307
