# total energy = -19960.35207426 eV

CRYSTAL
PRIMVEC
        5.93400000     0.00000000     0.00000000
        0.00000000     9.29699974     0.00000000
        0.00000000     0.00000000     4.64899994
PRIMCOORD
24 1
Ti      4.41630700     6.96030202     2.38744402     1.41014571     0.11388166    -0.14044631
Ti      4.49791201     2.37311702     2.39573601    -0.16911257    -0.47222827    -0.63656938
Ti      1.46024499     6.96943001     2.28022202    -1.19888399    -0.42628341    -0.29104641
Ti      1.57305103     2.26400898     2.28606001    -0.61383594     0.78074533     0.35706903
Ti      2.98960000     4.58221698     4.59580102    -2.66252101     0.92446568    -0.00672601
Ti      2.96636901     0.00011700     0.00259202     0.94462571    -1.03762357     0.43038766
Ti      5.83998399     4.64423502     0.12854398     2.66897062     0.92715043    -0.87202827
Ti      0.02339202     0.05449801     4.56301901    -0.80264523    -0.99414466     0.54823165
O       4.50247198     5.54729801     0.91867600    -1.29959157     0.15231118     0.11275037
O       4.49772002     0.95801598     0.82856600    -0.39142001    -0.44588139    -0.15033580
O       1.43972799     5.59088401     0.94300598     0.46301651    -0.94809259    -0.87142278
O       1.49542702     1.01309000     0.75783500    -0.24590734    -0.87240751     0.35388086
O       4.47210001     8.34854599     3.74886299    -0.07317928     1.12659843     0.55291183
O       4.41687899     3.82454999     3.70148098     0.15053223    -1.01152378    -0.09512391
O       1.44058399     8.23634602     3.66095299     0.33335625     2.48077917     2.24284148
O       1.46307598     3.72993400     3.79814997     0.78301613     0.04711574    -0.21289848
O       3.04831301     6.09808898     3.32307401    -0.79351292    -0.58996221    -0.16347260
O       2.88771798     1.43228501     3.24128601     0.78996171    -0.67072779    -0.01879323
O       0.02117598     5.99003299     3.11311701    -0.37631451    -0.04997995     0.95004868
O       0.06044702     1.51097398     3.18365300    -0.93462668    -1.41110241     0.79283492
O       3.01356199     7.92866798     1.39150100    -0.39742328     0.06539963    -0.15035585
O       2.94540200     3.10380301     1.43043702     0.83452435     1.70581934    -0.91700228
O       5.88241199     7.93922199     1.55993801     0.72811714     0.59256879    -1.58010957
O       5.77956401     3.25524999     1.43511399     0.85270822     0.01312189    -0.23462636
