# total energy = -19928.10686554 eV

CRYSTAL
PRIMVEC
        7.40132597     0.00000000     0.00000000
        0.00002604     4.24159569     0.00000000
        0.00000000     0.00000000    11.19758757
PRIMCOORD
24 1
Ti      2.68264021     2.51356581     4.15422528     0.27858556     0.14772124     1.76969688
Ti      4.71871198     1.72803023     7.04336276    -0.27858556    -0.14772124    -1.76969688
Ti      6.38317635     1.72803173     1.44452404     0.27884318    -0.14791228    -1.76979818
Ti      1.01817583     2.51356443     9.75306411    -0.27884318     0.14791228     1.76979818
Ti      2.68262730     0.39276802     1.44456892     0.27858556     0.14772124    -1.76969688
Ti      4.71872488     3.84882813     9.75301923    -0.27858556    -0.14772124     1.76969688
Ti      1.01816293     0.39276635     7.04331788    -0.27884318     0.14791228    -1.76979818
Ti      6.38318926     3.84882975     4.15427015     0.27884318    -0.14791228     1.76979818
O       2.34257564     1.49353802     5.71404341     1.57049159     0.69704767    -0.99660109
O       5.05877654     2.74805797     5.48354463    -1.57049159    -0.69704767     0.99660109
O       1.35814908     1.49355511     0.11528542    -1.57013806     0.69714125    -0.99731509
O       6.04320316     2.74804093    11.08230226     1.57013806    -0.69714125     0.99731509
O       5.05876364     0.62726012     0.11524910    -1.57049159    -0.69704767    -0.99660109
O       2.34258855     3.61433592    11.08233859     1.57049159     0.69704767     0.99660109
O       6.04319026     0.62724303     5.71407973     1.57013806    -0.69714125    -0.99731509
O       1.35816181     3.61435301     5.48350825    -1.57013806     0.69714125     0.99731509
O       0.26892312     2.57997898     3.02474786    -1.65560927     0.60238784     0.66710767
O       7.13242906     1.66161707     8.17284017     1.65560927    -0.60238784    -0.66710767
O       3.96959524     1.66157741     2.57408172    -1.65580571    -0.60241484    -0.66773425
O       3.43175695     2.58001864     8.62350608     1.65580571     0.60241484     0.66773425
O       0.26891021     0.45918107     2.57404598    -1.65560927     0.60238784    -0.66710767
O       7.13244197     3.78241497     8.62354182     1.65560927    -0.60238784     0.66710767
O       3.43174404     0.45922073     8.17287586     1.65580571     0.60241484    -0.66773425
O       3.96960814     3.78237531     3.02471212    -1.65580571    -0.60241484     0.66773425
