# total energy = -19518.28438550 eV

CRYSTAL
PRIMVEC
        5.93400000     0.00000000     0.00000000
        0.00000000     9.29699974     0.00000000
        0.00000000     0.00000000     4.64899994
PRIMCOORD
23 1
Ti      4.44512298     7.04663698     2.26425499     0.64203709    -0.00837794    -0.03360227
Ti      4.50638599     2.37567099     2.32778299    -0.81755866    -1.00964636     0.63702190
Ti      1.34995699     7.00126902     2.22329800    -0.42618853    -0.12081181     0.34458194
Ti      1.48442902     2.30720699     2.34557700     0.93354065    -0.75965148     0.62353826
Ti      2.97953499     4.61304299     0.21501599    -0.06851350    -0.33148088     0.24418650
Ti      2.94940401     9.18024599     4.59325202    -0.33124588     1.16539125    -0.42213082
Ti      0.00452600     4.56757698     4.62630200     0.17911597     0.33701107    -0.74247445
Ti      5.89956400     0.08459602     4.63814901     0.07675440     0.58669408     0.38235352
O       4.51099502     5.62122799     0.93630702    -0.87075172    -0.39249704    -0.25446603
O       4.46799598     0.96362600     0.89604901     0.32774301    -0.34122125     0.04969199
O       1.38565200     5.53470597     0.86908600     1.36168348     0.69910172     0.31215235
O       1.52219498     0.91197899     0.86645901    -0.14524810    -0.30178026     0.25577087
O       4.47983902     8.39561298     3.75289098     0.06636971    -0.70220941    -0.64634086
O       4.42229200     3.73337000     3.84314798    -0.43166344    -0.00974166    -0.75561536
O       1.60151002     8.41919401     3.47629199    -0.44138170    -0.06368651     1.50952428
O       1.51848502     3.61438201     3.82524401     0.22496390     0.96331301    -0.08795644
O       3.01032898     1.38099699     3.24541000     0.08226608     0.43500768    -0.54173241
O       0.03656001     6.05689602     3.25905499     0.01015200     0.29249806    -0.55748094
O       0.02344398     1.44461198     3.30635698    -0.11014224     0.22942322    -0.86645874
O       2.97542001     7.77548000     1.36610499     0.02987237    -0.08479424     0.07026879
O       3.01361798     3.30686801     1.49590698    -0.25367567    -0.15585416     0.21581617
O       5.89771998     7.88531000     1.36136801     0.11419276     0.06049757    -0.08801198
O       0.04232402     3.30218299     1.47016500    -0.15232172    -0.48718515     0.35136477
