# total energy = -4985.16726096 eV

CRYSTAL
PRIMVEC
        2.96505584     0.00000000     0.00000000
        1.78684544     4.28842876     0.00000000
       -0.00001139    -0.00006172     4.74539533
PRIMCOORD
6 1
Ti      2.37594486     2.14418338     2.37269761     0.00000000     0.00000000     0.00000000
Ti      0.00000000     0.00000000     0.00000000     0.00000000     0.00000000     0.00000000
O       1.83075548     0.83573947     0.92480763    -4.12320845     1.98412953     2.27667927
O       2.92113425     3.45262728     3.82058754     4.12320845    -1.98412953    -2.27667927
O       0.54518450     1.30841899     3.29750629     4.12303721    -1.98463835     2.27704745
O       1.24164953     2.97994794     1.44788894    -4.12303721     1.98463835    -2.27704745
