# total energy = -19956.02665931 eV

CRYSTAL
PRIMVEC
        4.89261516     0.00000000     0.00000000
        0.26022530     5.20071574     0.00000000
        0.00000000     0.00000000     8.75944346
PRIMCOORD
24 1
Ti      1.92754688     3.08193921     3.24969105     0.46896451     0.32479087    -0.32484178
Ti      3.22529337     2.11877634     5.50975251    -0.46896451    -0.32479087     0.32484178
Ti      4.32558054     2.11877812     1.12999573    -0.60120102    -0.69284828     0.87677119
Ti      0.82725977     3.08193763     7.62944793     0.60120102     0.69284828    -0.87677119
Ti      1.79743433     0.48158153     1.13003083     0.46971552     0.32464406     0.32064522
Ti      3.35540592     4.71913417     7.62941282    -0.46971552    -0.32464406    -0.32064522
Ti      0.69714721     0.48157960     5.50971736     0.60161368     0.69299509     0.88193242
Ti      4.45569309     4.71913609     3.24972620    -0.60161368    -0.69299509    -0.88193242
O       1.64017326     1.83126034     4.46987695    -1.12141714    -0.90993509    -0.23619962
O       3.51266699     3.36945520     4.28956661     1.12141714     0.90993509     0.23619962
O       0.98942336     1.83128133     0.09018337     1.15559611    -1.08279659    -0.04012105
O       4.16341694     3.36943426     8.66925993    -1.15559611     1.08279659     0.04012105
O       3.38255444     0.76909738     0.09015497     1.12135261     0.90967258    -0.23638217
O       1.77028581     4.43161817     8.66928834    -1.12135261    -0.90967258     0.23638217
O       4.03330439     0.76907644     4.46990540    -1.15562800     1.08328407    -0.04005832
O       1.11953581     4.43163921     4.28953815     1.15562800    -1.08328407     0.04005832
O       0.33604379     3.16337001     2.36614425    -0.56859659    -0.02793505    -0.59133518
O       4.81679651     2.03734553     6.39329936     0.56859659     0.02793505     0.59133518
O       2.72601632     2.03729708     2.01360539    -0.18924303    -0.54000617    -0.08613276
O       2.42682398     3.16341847     6.74583802     0.18924303     0.54000617     0.08613276
O       0.20593125     0.56301219     2.01357743    -0.56904139    -0.02809086     0.59124725
O       4.94690905     4.63770336     6.74586598     0.56904139     0.02809086    -0.59124725
O       2.29671143     0.56306065     6.39332726     0.18887588     0.53988250    -0.08580674
O       2.85612887     4.63765490     2.36611624    -0.18887588    -0.53988250     0.08580674
