# total energy = -19518.16950333 eV

CRYSTAL
PRIMVEC
        7.60600008     0.00000000     0.00000000
        0.00000000     7.60600008     0.00000000
       -1.89786986    -1.89786986     4.85670466
PRIMCOORD
23 1
Ti      3.72159200     6.67257502     1.23523401     1.14580715    -1.10014974    -1.50161916
Ti      3.72914801     2.67482600     1.24393098     1.33525998     2.32616737     0.28427053
Ti     -0.09537102     6.62377800     1.15339299     0.10080425    -0.64480412     0.11371531
Ti      0.08324397     2.77470302     1.26136700    -1.17173982     1.00671299    -0.76367834
Ti      5.66904021     2.86269525     3.64386882    -0.31613062     0.84079887     0.19733173
Ti      5.64218621    -0.78650879     3.58357781     2.09217195    -0.57093064     0.61144430
Ti      1.97565924     2.80689224     3.73798480     0.39364350     0.28075583     0.82809890
Ti      1.91542225    -0.97077376     3.50422381    -1.43708265    -0.18707251     0.63602020
O       3.63476898     4.65137098     0.85509403     0.21765450     1.84846008    -0.36605195
O       3.94439102     0.93050702     0.83589198    -0.32334900    -1.05932241    -0.93103640
O       0.23796402     4.70887799     0.82547301    -0.40075337     0.61916635     0.34474135
O      -0.07532103     0.96948902     0.62395602     0.02514308     0.01220066     1.29120643
O       5.72625925     4.71586123     4.14524479     0.27419103     0.30223509    -1.36109778
O       5.86474425     1.03043924     4.13169780     0.00544946    -0.66196315    -1.50840405
O       2.03518522     4.73437423     3.85414883    -1.16051489     1.18990981     1.12018713
O       1.79213221     0.92243321     4.13046381    -0.02429899    -0.77520769    -0.51986311
O       3.82256822     3.01997620     3.52487983     0.27584708    -1.53841526    -1.65772375
O       3.83945321    -0.71208477     3.14937983    -1.52455238    -0.42310141     0.02616690
O      -0.05989678    -0.97052780     3.20899980     1.14180651     0.05133672    -0.27091801
O       5.67236699     6.71769600     1.54436703     0.15176533    -0.59728188     0.08556095
O       5.76109398     2.90281101     1.58482702     0.31398786    -0.28768110     1.53596191
O       1.90485500     6.80044102     1.52389702    -0.36912699    -0.02807620     1.06237868
O       1.93091503     2.70605000     1.70519098    -0.74598323    -0.60373793     0.74330826
