# total energy = -4988.14432089 eV

CRYSTAL
PRIMVEC
        3.16929513     0.00000000     0.00000000
        1.22235348     4.81301611     0.00000000
       -0.00000786    -0.00006508     5.00567725
PRIMCOORD
6 1
Ti      2.19582025     2.40647542     2.50283868     0.00000000     0.00000000     0.00000000
Ti      0.00000000     0.00000000     0.00000000     0.00000000     0.00000000     0.00000000
O       1.82286463     0.93797321     0.97553280     0.11234748    -0.06439870    -0.28053291
O       2.56877581     3.87497764     4.03014457    -0.11234748     0.06439870     0.28053291
O       0.37295228     1.46847587     3.47837249    -0.11198547     0.06470878    -0.28049409
O       0.84939322     3.34447507     1.52730488     0.11198547    -0.06470878     0.28049409
