# total energy = -4961.45639872 eV

CRYSTAL
PRIMVEC
        4.86993108     0.00000000     0.00000000
       -0.00000690     2.62227090     0.00000000
       -2.43499258    -1.31119445     5.25369008
PRIMCOORD
6 1
Ti     -0.00020844     1.96679353     1.31342231    -0.01703254    -0.01989160    30.36443698
Ti      2.43513968    -0.65571693     3.94026735     0.01703254     0.01989160   -30.36443698
O       0.00005169     0.65555746     0.85578312     0.01554438     0.01804427   -21.52572511
O       2.43487944     0.65551904     4.39790664    -0.01554438    -0.01804427    21.52572511
O      -0.00001989    -0.65557523     3.48262816    -0.00183962     0.00018692    -1.35397531
O       2.43495092     1.96665173     1.77106160     0.00183962    -0.00018692     1.35397531
