# total energy = -4915.29447330 eV

CRYSTAL
PRIMVEC
        6.18962371     0.00000000     0.00000000
       -0.00000766     2.06320791     0.00000000
       -3.09485125    -1.03173821     7.02163278
PRIMCOORD
6 1
Ti     -0.00026490     1.54745513     1.75540777    -0.04203961    -0.02654974    79.47019692
Ti      3.09502954    -0.51598549     5.26622398     0.04203961     0.02654974   -79.47019692
O       0.00006535     0.51577961     1.14376642     0.04078465     0.02693849   -76.57800844
O       3.09469912     0.51568997     5.87786539    -0.04078465    -0.02693849    76.57800844
O      -0.00002839    -0.51586626     4.65458264    -0.00127630    -0.00003625    -0.71314509
O       3.09479275     1.54733579     2.36704917     0.00127630     0.00003625     0.71314509
