# total energy = -19958.43241231 eV

CRYSTAL
PRIMVEC
        7.60600008     0.00000000     0.00000000
        0.00000000     7.60600008     0.00000000
       -1.89786986    -1.89786986     4.85670466
PRIMCOORD
24 1
Ti      3.74762000     6.64053101     1.13909499     0.80122778    -3.48063734    -0.63646345
Ti      3.88487699     2.59539999     1.24998599    -0.08985520     1.77683555     1.69752238
Ti     -0.01690700     6.74830198     1.15476398    -1.25947900     0.05542349     0.35936734
Ti     -0.01995501     2.83774301     1.28944001     0.35219113    -0.61290160    -0.33043110
Ti      5.76927723     2.90883924     3.76823881    -3.72512260     1.75034418     0.61356520
Ti      5.63446922    -0.62540877     3.61837984     0.77878795    -2.95449919    -0.81415966
Ti      1.81458022     2.67397625     3.68677182     2.73692028     1.93316922     0.48404069
Ti      1.95201322    -0.92360676     3.58374683    -0.45506640    -1.08412071    -0.87375348
O       4.00443099     4.57814301     0.77618798    -1.39588251     0.33147214    -0.22705318
O       4.03223598     0.69380202     0.76176499    -0.18253554     4.41759421    -1.47312799
O       0.13089601     4.84939598     0.81712101     0.64462105    -1.37835735     0.16565572
O      -0.04175399     0.95774002     0.67651602     0.42014232     1.68684536     0.16275912
O       5.39895725     4.87855222     4.14029979     1.30432189    -1.56307369    -1.34797847
O       5.28500025     1.05912223     4.28782081     1.27075947     0.91104683    -1.76073709
O       1.97421220     4.65274424     3.99202882    -0.91863287     0.49035481    -0.71928566
O       2.04787320     0.88294124     4.17608583    -0.50513326    -1.41663646    -1.04551969
O       3.83241124     2.96035523     3.18765882     0.37407482    -0.89263156    -0.86359119
O       3.86322422    -0.77307780     3.02953880    -1.92591845    -0.31727116     1.74154020
O      -0.07300879     2.85249022     3.31848980     0.71386423     0.00975220    -0.59480000
O       0.01501122    -0.64492075     3.18270281    -0.30611977    -0.38770296     0.59167225
O       5.64611202     6.50886499     1.54730798     1.87452850     0.56464737     1.19776582
O       5.75940099     2.47101799     1.38671697    -0.14590810     0.97170843     2.54120166
O       1.88588702    -0.58144398     1.54826198     0.16412952    -1.59064570     0.85986103
O       1.89304297     2.43352398     1.64987798    -0.52591600     0.77928340     0.27194928
