# total energy = -19949.41747516 eV

CRYSTAL
PRIMVEC
        5.71920652     0.00000000     0.00000000
        0.00003135     6.08696525     0.00000000
        0.00000000     0.00000000    10.23612209
PRIMCOORD
24 1
Ti      2.07295586     3.60712998     3.79752836     0.02967157    -0.63179176     0.51868580
Ti      3.64628200     2.47983533     6.43859402    -0.02967157     0.63179176    -0.51868580
Ti      4.93245900     2.47983742     1.32049193     0.03040562     0.63202419    -0.51872668
Ti      0.78677887     3.60712812     8.91563057    -0.03040562    -0.63202419     0.51872668
Ti      2.07294031     0.56364747     1.32053298     0.02967157    -0.63179176    -0.51868580
Ti      3.64629756     5.52331801     8.91558952    -0.02967157     0.63179176     0.51868580
Ti      0.78676331     0.56364520     6.43855297    -0.03040562    -0.63202419    -0.51872668
Ti      4.93247455     5.52332028     3.79756941     0.03040562     0.63202419     0.51872668
O       1.81017601     2.14332400     5.22341486     1.09193686     0.99216542     0.04720804
O       3.90906185     3.94364137     5.01270752    -1.09193686    -0.99216542    -0.04720804
O       1.04948276     2.14334851     0.10538662    -1.09173554     0.99182758     0.04661772
O       4.66975516     3.94361685    10.13073547     1.09173554    -0.99182758    -0.04661772
O       3.90904630     0.90015868     0.10535340    -1.09193686    -0.99216542     0.04720804
O       1.81019157     5.18680662    10.13076868     1.09193686     0.99216542    -0.04720804
O       4.66973960     0.90013417     5.22344807     1.09173554    -0.99182758     0.04661772
O       1.04949820     5.18683120     5.01267431    -1.09173554     0.99182758    -0.04661772
O       0.20781105     3.70243733     2.76503201     0.38231110    -0.22515467     0.26165175
O       5.51142682     2.38452798     7.47109037    -0.38231110     0.22515467    -0.26165175
O       3.06741889     2.38447125     2.35306172     0.38245457     0.22537476    -0.26160059
O       2.65181898     3.70249406     7.88306048    -0.38245457    -0.22537476     0.26160059
O       0.20779549     0.65895465     2.35302904     0.38231110    -0.22515467    -0.26165175
O       5.51144238     5.42801066     7.88309317    -0.38231110     0.22515467     0.26165175
O       2.65180342     0.65901138     7.47112300    -0.38245457    -0.22537476    -0.26160059
O       3.06743444     5.42795393     2.76499932     0.38245457     0.22537476     0.26160059
