# total energy = -4984.54015107 eV

CRYSTAL
PRIMVEC
        4.10755220     0.00000000     0.00000000
        0.00000000     3.46549458     0.00000000
        0.00000000    -0.00007828     5.44033654
PRIMCOORD
6 1
Ti      2.05377599     1.73270809     2.72016844     0.00000000     0.00000000     0.00000000
Ti      0.00000000     0.00000000     0.00000000     0.00000000     0.00000000     0.00000000
O       2.05377599     0.67535859     1.06024152     0.00000000     0.09099137     1.55686705
O       2.05377599     2.79005766     4.38009531     0.00000000    -0.09099137    -1.55686705
O       0.00000000     1.05731831     3.78041100    -0.00000000    -0.09137113     1.55853827
O       0.00000000     2.40809787     1.65992588    -0.00000000     0.09137113    -1.55853827
