# total energy = -19073.75467573 eV

CRYSTAL
PRIMVEC
        5.93400000     0.00000000     0.00000000
        0.00000000     9.29699974     0.00000000
        0.00000000     0.00000000     4.64899994
PRIMCOORD
22 1
Ti      4.46811102     6.96047999     2.43460498    -1.46910704    -0.46206649     0.06883154
Ti      4.40400898     2.47148499     2.09100199     1.59161655    -0.93807145     0.17362666
Ti      1.49057902     7.13573402     2.50516199     1.12208434     0.35303342     0.37940344
Ti      1.58928301     2.25458100     2.22570300    -0.96967855     0.59938813     0.11172219
Ti      2.99345902     4.49744898     4.42836002    -1.75988657     1.15539017     0.78392913
Ti      2.97340299     0.01732299     0.04601101     1.21999842     0.21162449     0.35091432
Ti      5.79582701     4.68159700     4.50059298     0.62418180    -0.57376168     0.31810574
Ti      0.02829902     9.12741198     0.22756903    -1.70312482     0.18667630     0.72914739
O       4.50163800     5.54392001     0.84306101    -0.83005088    -0.08797496     1.35513873
O       4.45473898     0.72904797     1.11653002     0.60852789     1.50663847    -0.51379351
O       1.51507400     0.61375099     1.21164598    -0.74795296     1.35021275    -0.27997601
O       4.42412602     8.32679998     3.94987599     0.10380576     0.53721498    -0.77360101
O       4.36833100     3.95411698     3.47118998     1.65185006    -1.50277410    -1.67375355
O       1.44268800     8.51669799     3.79995600     0.28690437     0.23928546    -0.62379125
O       1.45432699     3.88499198     3.47776802     0.22430261    -0.08470323     0.56322838
O       2.87470397     6.18057702     3.42243503    -0.21605862    -0.74194583    -0.27735914
O       3.00142102     1.56986501     3.17578397     0.54110480    -0.84706568     1.91344988
O       0.04847899     6.36926999     3.51057299     0.30864717    -1.94793353     0.02722002
O       3.02841600     7.95936698     1.66733898    -0.28212288    -0.67482998    -1.05735063
O       2.97331298     2.94073402     1.09421398    -0.84042117     1.80788806    -1.21757824
O       5.87553999     7.77044398     1.49740498     0.87434381    -0.03874448    -0.48288472
O       0.05859998     3.17117399     1.20250598    -0.33896408    -0.04748109     0.12537089
