# total energy = -4983.33024723 eV

CRYSTAL
PRIMVEC
        2.69835689     0.00000000     0.00000000
        0.83721195     4.14419955     0.00000000
       -0.00000558    -0.00005536     4.24943259
PRIMCOORD
6 1
Ti      1.76778158     2.07207210     2.12471639     0.00000000     0.00000000     0.00000000
Ti      0.00000000     0.00000000     0.00000000     0.00000000     0.00000000     0.00000000
O       1.51233759     0.80763271     0.82815188    -4.82183374     2.42648979     2.72917328
O       2.02322557     3.33651150     3.42128091     4.82183374    -2.42648979    -2.72917328
O       0.25544171     1.26441697     2.95286903     4.82210602    -2.42806434     2.73072726
O       0.58176466     2.87972713     1.29656375    -4.82210602     2.42806434    -2.73072726
