# total energy = -39027.03949355 eV

CRYSTAL
PRIMVEC
        5.93200024     0.00000000     0.00000000
        0.00000000     9.29399984     0.00000000
        0.00000000     0.00000000     9.29399984
PRIMCOORD
46 1
Ti      4.27652901     7.23437499     6.69639101     2.86047211    -1.99330323     0.49161979
Ti      4.38310600     6.74404300     2.50121898    -2.77078146     0.47207837    -1.23131873
Ti      4.46723603     2.52994701     6.98014898    -0.86942168    -2.15585897     1.08668615
Ti      4.45589200     2.68250002     1.82414801     0.32536268    -0.28869488     1.06242856
Ti      1.36138902     6.99654400     7.19449503     0.00490258    -1.57291459    -2.05382085
Ti      1.29433702     6.96775099     2.27532200     4.55047479     0.80657233    -1.73152678
Ti      1.46893900     2.45743999     6.84558301     1.01495029    -0.88309533     2.35377100
Ti      1.72199400     1.66096599     2.93291400    -0.43301044    -0.82622842    -0.12534055
Ti      2.82472699     4.62321599     4.59067001    -0.39712503     1.43940487     1.64391435
Ti      3.16449498     4.77332802     8.93989702    -0.83888648     0.71666468     1.08268166
Ti      3.06201198     0.18357402     4.94925998    -1.68629823     0.56895500    -1.54228375
Ti      2.91132198     0.04070098     9.16297899     0.61622912     0.70564775     1.16109879
Ti      5.83149599     4.56791602     4.59990902     0.79951696     1.45628443     1.41246561
Ti      0.25859400     4.65557100     9.15521802    -0.48262761     1.27092222    -0.89710862
Ti      5.66430402     8.98074702     4.48511798     2.08393311    -1.00704517     1.02489198
Ti      5.87259300     9.24699900     0.01862900    -0.73785417     1.10202922    -0.44769530
O       4.66471497     5.63240199     5.43480303    -1.90143639     0.49965603     1.48943701
O       4.48178200     4.94443500     1.22049901     0.24384994     0.51528937    -0.17164820
O       4.70009799     0.78202899     5.63124002     0.20427679     0.75259920     0.11778562
O       4.21014701     0.77193800     0.80562199     3.42499556     2.58248022     1.97928454
O       1.57526902     5.65865400     5.64836499     0.50954527    -1.30576094    -0.94122645
O       1.67826401     5.65117302     0.52689703    -0.91941115     0.02382025     2.73503694
O       1.60786602     1.41781402     5.47098298     0.21756220    -2.67493995    -2.51852426
O       1.71097600     0.68733399     1.30702600    -1.26161945     2.15453897    -2.54688843
O       4.55688199     8.22080298     8.38027599    -0.96170324     0.81682744    -0.65574134
O       4.13915100     8.04067099     3.88436602     0.29101350     2.36562250     0.43357660
O       4.43282098     3.45312900     8.68499699     1.12688742    -0.59783364     0.18542366
O       4.49417702     3.96242099     3.57921601    -1.18026971    -0.94278377    -0.57500764
O       1.53224998     8.42103301     8.47015003    -2.26467530    -1.43120099    -1.56207019
O       1.54515000     9.17275798     3.55498398    -2.19185315    -1.62433848     1.26710644
O       1.66904600     4.02279799     8.04211501    -1.23617683    -1.24569737     1.90667296
O       1.48366801     3.47044998     4.14969898     0.51954378     0.64567058    -1.86547256
O       3.15349498     5.95966198     7.63818703     0.27252007     2.35800278    -0.71284350
O       2.66035300     6.07498102     3.27119098     1.17023778    -1.21559411    -0.20327175
O       2.92151801     1.48507102     7.65998098     0.30916370    -1.76725484     1.97908425
O       3.50440702     1.46617601     3.31573400     0.96835957     1.40335028    -0.93223170
O       5.83955499     6.08990800     7.89565202    -0.23364986    -1.00570460     0.73171849
O       5.83307098     6.46350698     3.50133303     1.78938382    -1.79754913    -0.21597635
O       5.82076099     1.43269502     8.06765702     1.30689942    -0.09367201    -0.36568248
O       2.77356100     8.04648400     6.07521302    -0.55751667     0.04473284     0.81704212
O       2.64775499     7.97515599     1.51069902     1.82616578    -2.46830957     0.01290617
O       3.01184402     3.40521898     6.19471500     1.82005992     0.57709537    -1.23574720
O       0.24306498     7.76021498     5.86402801    -1.56931428     1.51032029     0.40189134
O       0.00467602     7.70662700     1.31957798    -2.88968346     0.70377676    -0.28617546
O       5.93048701     3.35594200     6.21999999    -1.96251811     1.12046480    -1.11214086
O       0.21563999     2.56300302     2.22846901    -0.91047425     0.28497347    -1.44678137
