# total energy = -19072.73930874 eV

CRYSTAL
PRIMVEC
        7.60600008     0.00000000     0.00000000
        0.00000000     7.60600008     0.00000000
       -1.89786986    -1.89786986     4.85670466
PRIMCOORD
22 1
Ti      3.82656801     6.52715002     1.46610102    -0.17489756     1.76206841    -1.04783908
Ti      3.76719400     2.86087499     1.27685703     1.07394787    -0.79606371    -1.36258388
Ti      0.08288397     6.63396498     1.26128397     0.50061325     1.08842113    -1.85765255
Ti     -0.10612502     2.95293802     0.98985499    -0.08375089    -1.17585487     1.97532401
Ti      5.65501924     2.81290120     3.47521083    -0.13926154     1.59890486    -1.48996538
Ti      5.94467721    -0.83728377     3.70879284    -0.01387085    -2.39921346     0.66703851
Ti      1.99312320     2.89744224     3.72231782    -1.46285694    -0.35167305     0.57710077
Ti      1.50651821    -0.90295477     4.01830380     2.31675301     1.19164582    -0.38378768
O       3.58283003     4.78845201     0.99198599     0.21615041    -0.12097173    -0.44692012
O       3.93441100     1.04519698     1.03511700    -1.14973580    -1.32460250     0.94692093
O       0.19744498     4.77807601     0.46693902     0.39079034    -0.71042152     1.36872162
O       0.17132002     0.78566798     0.85986202    -0.18660045     1.17891731     1.07941918
O       5.67141923     4.92190824     3.90207181    -0.22886966    -1.79272188     0.09797295
O       5.06893723     0.69589920     4.09932279    -0.48785158     2.25236537    -1.87063817
O       1.78867525     4.92433822     4.43475179     0.34005706    -2.57417324    -0.54753745
O       2.28409120     0.93558622     4.27818280    -0.75363895     1.79239175    -1.76474339
O       3.74080722     3.06363623     3.12953579     0.42704317     0.44466989     2.17152240
O       0.29205425     3.21181020     2.84811081     0.24058721    -0.81017393     0.86138930
O       5.87655501     6.70167299     1.80497100    -1.04788588    -0.55775501    -0.77301839
O       5.72960698     2.66292502     1.48730801     0.44325501     0.96740029     1.84592214
O       1.96498002     6.74808099     2.14916900     0.14261477    -0.72806675    -0.14346607
O      -0.05553578    -0.13460878     4.13763782    -0.36259201     1.06490633     0.09682058
