# total energy = -4986.60400158 eV

CRYSTAL
PRIMVEC
        3.53803891     0.00000000     0.00000000
        1.03804801     3.38233287     0.00000000
       -2.28807539    -1.69119003     4.56815368
PRIMCOORD
6 1
Ti      0.77842774     2.53687932     1.14203815     0.00107369    -0.00120173    -0.00145062
Ti      1.50958357    -0.84573665     3.42611485    -0.00107369     0.00120173     0.00145062
O       0.25954901     0.84557853     0.74411478     0.00049725     0.00129789     0.04017119
O       2.02846214     0.84556407     3.82403822    -0.00049725    -0.00129789    -0.04017119
O      -0.25952176    -0.84555839     3.02819148     0.00129866     0.00043169     0.03762091
O       2.54753290     2.53670089     1.53996158    -0.00129866    -0.00043169    -0.03762091
