# total energy = -4978.22492223 eV

CRYSTAL
PRIMVEC
        4.31671270     0.00000000     0.00000000
        0.00000000     2.25454733     0.00000000
        0.00000000    -0.00011891     6.01212537
PRIMCOORD
6 1
Ti      2.15835614     1.12721416     3.00606268     0.00000000     0.00000000     0.00000000
Ti      0.00000000     0.00000000     0.00000000     0.00000000     0.00000000     0.00000000
O       2.15835614     0.43935489     1.17167470     0.00000000    -0.57375705     0.66900746
O       2.15835614     1.81507348     4.84045072     0.00000000     0.57375705    -0.66900746
O       0.00000000     0.68781256     4.17773860    -0.00000000     0.57363467     0.67356551
O       0.00000000     1.56661580     1.83438676    -0.00000000    -0.57363467    -0.67356551
