# total energy = -19516.98027906 eV

CRYSTAL
PRIMVEC
        5.17600016     0.00000000     0.00000000
        0.00000000     5.50899976     0.00000000
        0.00000000     0.00000000     9.26300011
PRIMCOORD
23 1
Ti      1.88325701     3.16621698     3.38701899    -0.48869079    -0.06728862     2.88893346
Ti      3.38311800     2.31296401     5.93628002     0.36665179    -0.81700638    -2.89094895
Ti      4.39635099     2.07363402     1.50734399    -0.44583125     0.51687112    -2.37546957
Ti      0.81232100     3.48684198     7.73106499     1.04788305    -2.29531772     3.56433629
Ti      1.94768698     0.19600699     1.36304402     1.14162319     0.35784216    -1.82707595
Ti      3.35693902     5.09665897     7.90354200    -0.42191227     0.49840648     2.41601743
Ti      0.69398702     0.60303103     5.88665197     0.76251929     0.82229977    -3.81833335
Ti      4.49436298     4.94576800     3.34431502     0.31784735    -0.87641663     3.97842803
O       1.74807100     1.83221701     4.75023298    -0.10508822     0.41673278     0.36048422
O       3.58836802     3.55371300     4.49449897    -0.54380806    -0.53860029     0.24973803
O       4.76559002     3.06984100     9.25196798     0.18603969    -0.14395046    -0.05049031
O       3.57691901     0.53877499     0.34373301     0.31472114     0.46127202    -1.12163234
O       1.88990199     4.52329997     9.07247100    -0.92508609    -0.21780389     0.00749914
O       4.24497401     0.86532302     4.88828400     0.27859919    -0.22635821    -0.62973025
O       0.84907802     4.73110301     4.44960702     0.86036857    -0.38418595     0.34117292
O       0.17032797     3.34762899     2.53210298     0.22135227    -0.41515232    -0.13001534
O       5.08133199     2.03282398     6.95768598    -0.48859746    -0.22651273    -0.53465956
O       2.58308201     2.02094998     2.02732302    -0.44462643    -0.23869694    -0.02225882
O       2.52610698     3.71042101     6.84981701    -0.30948714    -0.40759739     0.79102049
O       0.18756201     0.50335102     2.12158002     1.04087216     1.60092086    -1.29577657
O       5.13996599     4.74877901     6.95593398    -2.34210307     1.46857302     0.25868907
O       2.46107797     0.84923799     6.98354598    -0.51542204     0.54411325     0.01360603
O       2.75105203     4.63061299     2.50757001     0.49217540     0.16785556    -0.17353333
