# total energy = -19957.53255716 eV

CRYSTAL
PRIMVEC
        7.60600008     0.00000000     0.00000000
        0.00000000     7.60600008     0.00000000
       -1.89786986    -1.89786986     4.85670466
PRIMCOORD
24 1
Ti      3.80842400     6.78699700     1.30363498    -0.71113886    -0.83984910    -0.48781147
Ti      3.72114500     2.95592501     1.09350002     2.60025015     1.00754165     1.79511095
Ti     -0.02805899     6.42517402     1.14369200     0.46955175    -0.65728220    -0.25308046
Ti      0.22768200     2.71688400     1.11638900    -5.59399673    -0.45060888    -1.87672346
Ti      5.76930824     2.88422123     3.55983579    -0.02665926    -3.02215085    -1.51134102
Ti      5.68375123    -1.11430277     3.61640283    -2.06605596     1.46304540     0.31056804
Ti      1.94213025     2.97596220     3.69632780     0.53250343     2.64617367     0.82487011
Ti      1.66991020    -0.81537176     3.70758383     1.91771997    -3.32926847    -0.90747017
O       3.67556998     4.86948599     0.74138399     0.35249940    -1.83059836     0.60266938
O       3.65686399     1.04157799     0.82551699    -0.39192266     1.10059146     0.76094989
O      -0.06409199     4.54592701     0.70475202     0.49385716     2.03525336     0.07929259
O       0.29703201     0.85554298     0.61397700    -0.53481871    -1.03248034     2.50782076
O       5.61779622     4.58192525     4.03869379     0.44892043     2.95274390     2.01375559
O       5.94784021     0.79336624     3.89816183    -0.19544068     0.94301645     0.54561812
O       1.91359421     4.90667122     4.24216779    -0.19073684    -0.08379511    -0.39381293
O       1.86947220     1.05508022     4.07895481    -0.44847641    -0.15517308    -0.70510293
O       3.83477221     3.30961121     3.54785379    -2.48962865    -2.49862315    -2.56033659
O       3.75350720    -0.98844077     3.55769882    -0.18834443     0.72650223    -1.89871077
O      -0.05576576     3.22267125     3.29449484     1.93003324    -1.31582347    -0.63744639
O      -0.10568776     6.24606525     3.30254881     2.78309782     1.08201831    -1.79410437
O       5.65625598     6.42196699     1.61038099     0.75936789     0.73149095     0.02553055
O       5.79008401     2.82959902     1.51093001    -2.24416894    -0.47834904     0.85194846
O       1.97535798     6.42659301     1.58864800    -2.16823755     1.06210537     1.65611681
O       1.80660600     2.99414198     1.67932897     4.96182419    -0.05648073     1.05168983
