# total energy = -19073.33066517 eV

CRYSTAL
PRIMVEC
        5.93400000     0.00000000     0.00000000
        0.00000000     9.29699974     0.00000000
        0.00000000     0.00000000     4.64899994
PRIMCOORD
22 1
Ti      4.50362998     6.70938099     2.47940402    -1.05025952    -0.05406235    -0.80875674
Ti      4.32872198     2.48766903     2.17788798     0.64765830    -0.95145713    -0.15373660
Ti      1.64194800     7.26235899     2.49462501     0.50593467    -0.75616095    -0.79989466
Ti      1.52281099     2.43279499     2.17881202    -0.15290973    -0.46273729    -0.20826098
Ti      2.95897498     4.60734899     4.61117700     0.68331771     0.84430045     0.88253509
Ti      2.97038901     0.07856102     0.07325401     0.43654571     0.80647848    -0.15180056
Ti      5.81391698     4.64697902     4.26643501    -0.16365386    -0.54436625     1.91838640
Ti      5.87341900     8.87637199     0.18729001    -0.62963383     0.78433202     0.41383232
O       4.59716899     5.28454500     0.95056501    -0.94177873     1.52161772     0.79312186
O       4.50904198     0.82919498     0.81390599     1.21124175     0.67063754     0.85892669
O       1.48713000     0.69740698     1.13134699    -0.84994223     0.78274308    -0.33795672
O       4.44119199     8.36552200     3.76483700     0.13023542     0.36224466     0.21489545
O       4.23636298     4.14110001     3.32499698     0.71602807    -1.40448285    -0.71821274
O       1.51138500     8.53463101     3.70106902    -0.65030036     1.43909994     1.13496069
O       1.52730402     3.77187500     3.72597702    -0.71994360    -0.38083734    -1.18359672
O       2.94806001     6.31384899     3.55409300    -1.02355783    -0.78187482    -0.33295130
O       3.04097501     1.45551002     3.20446602     0.04055377     0.46703463     0.34072400
O       0.03969099     6.40645199     3.65199201     1.09319002    -1.48936605    -0.19311074
O       3.07281899     7.86610203     1.46348202    -0.09579754    -1.01466413     0.17917767
O       2.97087400     2.94284899     1.06448502    -0.80998624     1.45681407    -0.16210426
O       5.88603300     7.78954098     1.69519000     0.32961375     0.02644509    -1.85635671
O       5.87632900     3.26560001     1.36432098     1.29344355    -1.32173855     0.17017855
