# total energy = -19926.95030134 eV

CRYSTAL
PRIMVEC
        4.55466220     0.00000000     0.00000000
        0.00002496     4.84753794     0.00000000
        0.00000000     0.00000000     8.15184383
PRIMCOORD
24 1
Ti      1.65086078     2.87264650     3.02427598    -0.13479193     1.41985085    -1.91663830
Ti      2.90382639     1.97489149     5.12756809     0.13479193    -1.41985085     1.91663830
Ti      3.92811214     1.97489315     1.05161348    -0.12913756    -1.41920808     1.90985136
Ti      0.62657503     2.87264502     7.10023068     0.12913756     1.41920808    -1.90985136
Ti      1.65084839     0.44887762     1.05164617    -0.13439110     1.41876148     1.90905843
Ti      2.90383878     4.39866050     7.10019799     0.13439110    -1.41876148    -1.90905843
Ti      0.62656264     0.44887582     5.12753540     0.13001636     1.41858510     1.91734202
Ti      3.92812453     4.39866231     3.02430867    -0.13001636    -1.41858510    -1.91734202
O       1.44158813     1.70690056     4.15982360    -3.37610756    -2.89322541    -0.49728496
O       3.11309903     3.14063747     3.99202047     3.37610756     2.89322541     0.49728496
O       0.83578718     1.70692008     0.08392780     3.37460937    -2.89479867    -0.49487429
O       3.71890004     3.14061795     8.06791603    -3.37460937     2.89479867     0.49487429
O       3.11308665     0.71686845     0.08390135     3.37525472     2.89397771    -0.49635293
O       1.44160052     4.13066953     8.06794248    -3.37525472    -2.89397771     0.49635293
O       3.71888765     0.71684893     4.15985005    -3.37556737     2.89403968    -0.49614313
O       0.83579947     4.13068910     3.99199402     3.37556737    -2.89403968     0.49614313
O       0.16549658     2.94854738     2.20201644    -1.21487883     0.71401695    -0.82908543
O       4.38919059     1.89899061     5.94982763     1.21487883    -0.71401695     0.82908543
O       2.44283133     1.89894543     1.87393151    -1.21500482    -0.71516829     0.82909392
O       2.11185584     2.94859255     6.27791242     1.21500482     0.71516829    -0.82909392
O       0.16548419     0.52477836     1.87390548    -1.21499145     0.71457488     0.82856607
O       4.38920298     4.32275962     6.27793845     1.21499145    -0.71457488    -0.82856607
O       2.11184345     0.52482354     5.94985361     1.21498965     0.71454763     0.82947290
O       2.44284372     4.32271444     2.20199041    -1.21498965    -0.71454763    -0.82947290
