# total energy = -19071.45031675 eV

CRYSTAL
PRIMVEC
        5.17600016     0.00000000     0.00000000
        0.00000000     5.50899976     0.00000000
        0.00000000     0.00000000     9.26300011
PRIMCOORD
22 1
Ti      1.51224501     3.35365998     3.58560202     1.29703461    -1.45531975     0.77943741
Ti      4.10742301     2.06793002     5.75619100     0.87490456     2.16884279    -1.44076087
Ti      4.06168601     2.14393401     1.62679802     0.04640869    -1.06754043     0.20975839
Ti      1.02599600     2.99354099     8.12030100    -0.10790950     1.02516786     1.44148824
Ti      1.51523698     0.51521501     1.15438202     1.59333276    -0.91388405     1.12961485
Ti      3.50853201     5.14319900     7.95203602    -1.06842180     0.86249127     0.92574712
Ti      1.47019299     0.42926102     5.76726498     1.27006707     1.64370686    -1.89827471
Ti      4.12428800     4.94099900     3.56459299    -0.93747624     1.15811065     0.65589612
O       3.07430699     3.36251697     4.93436698    -0.31055132     0.56939852    -1.43013707
O       0.74227201     2.03949802     0.54386700    -1.08132926     1.03261918    -2.57285401
O       4.60502801     3.52307099     7.47129902    -0.01632471     0.92857508    -0.06252617
O       3.29619900     0.87060400     0.44308800     0.09184652    -0.68704453    -1.74431365
O       1.64500802     4.58546602     9.14601002     0.05692142    -0.44047384     0.24435259
O       3.39748501     0.78205502     4.68278701    -1.50524776    -1.45459187     0.39697205
O       0.73671199     4.80513898     4.44354899    -0.81693979     0.22857193     1.89159395
O       4.81933199     3.38273498     2.87643899     1.39911130    -1.17771249    -1.54166077
O       0.57062998     1.77050902     4.86729202     0.92137187     2.38086966    -0.28453586
O       2.40424799     1.99818600     2.42785300    -0.41258739     0.20422537     0.29991544
O       2.10910202     4.68473401     6.79205298     0.62519045    -3.10656560     2.33348859
O       4.92380502     0.71784402     2.43261702     0.87229335    -0.95439179    -0.39103023
O       3.28700798     1.36159402     7.12612898    -2.35086976    -1.21658168     2.10538666
O       2.48258199     4.66888299     2.64307002    -0.44082506     0.27152659    -1.04755832
