# total energy = -39019.91364525 eV

CRYSTAL
PRIMVEC
        5.93200024     0.00000000     0.00000000
        0.00000000     9.29399984     0.00000000
        0.00000000     0.00000000     9.29399984
PRIMCOORD
46 1
Ti      4.56014902     7.10591102     7.07658899     1.88805431     0.45075749    -2.57706908
Ti      4.32027398     7.02955402     1.88562100    -0.33049435    -0.40377030     0.40312084
Ti      4.27218801     3.06288702     6.92991402     0.10547209    -3.52802921    -1.53407035
Ti      4.61027200     2.27989499     3.43613902    -0.67342230     5.35939351    -2.56511756
Ti      1.66442401     7.35329302     6.74912802     0.07706936     1.19596605    -2.82635845
Ti      1.54407402     6.66830202     2.30379300    -1.21669172     0.93980309     1.41816087
Ti      1.11096901     1.92659498     8.10545101     0.35900892     1.26375809     2.87651040
Ti      1.72733498     2.21713298     4.08539299     0.12257199     1.53218265     0.87121966
Ti      3.03394701     4.85680399     4.70186401    -1.68570276     0.34312644     1.27146112
Ti      2.88822900     4.52902800     8.80984901    -0.86180325     1.25859249     2.55891811
Ti      3.01932002     9.14408800     3.75343598    -0.66970706    -4.72857311    -0.38980381
Ti      3.16084001     0.09476998     0.11481802    -1.25797208     2.00584096    -0.44932693
Ti      0.02554201     4.82108198     4.47257400     0.74949613    -1.68451028     3.61898305
Ti      0.02961101     5.30157397     9.12956902    -0.79057184    -2.69814006     4.38014943
Ti      0.01485501     9.25333701     4.27322499     0.90198935    -4.12576207     1.34179522
Ti      5.90409202     8.92988901     9.21715103     0.92962280    -0.01015740     1.49447869
O       4.46914498     4.76555901     5.91198702     1.13443438     3.94043123    -0.35367054
O       4.20442200     5.33058299     0.75102502     0.73950174     1.26536632     0.03391543
O       4.28787399     1.01913702     4.42695802    -0.28807602    -4.38397549     5.84439579
O       4.66496999     0.30022702     1.22228700    -0.19006836     0.56163018    -0.99176433
O       1.50794302     5.60960001     5.63460998    -1.03733587    -0.10871991    -1.57318585
O       1.57001799     5.41620498     1.14734597     0.18366142    -1.23397468    -4.33703072
O       1.73408099     0.61808802     4.95514301    -1.88923908     1.01113297     2.09934610
O       1.35904698     0.78608503     0.49146501    -0.92290939     1.69758332    -0.37958264
O       4.33068898     8.49694899     8.20951102    -0.58808299     0.25377852     0.32079460
O       4.68747399     7.92443900     3.50576399    -0.24086463     2.15834960     0.01512941
O       4.65898700     4.09311798     8.30283000     0.39920994     0.43539823     0.03487317
O       4.09840901     4.07705200     3.53247500     2.81526233    -2.00340278    -2.40134979
O       1.63935403     8.65343702     8.01400400     0.11499340     0.17126973     0.05651621
O       1.30553399     8.44715098     3.05585399    -0.37826187    -0.13644052     1.22542345
O       0.85279300     3.56683898     0.14885401     1.83929718    -1.39839807    -3.42571393
O       1.51778301     3.94236998     3.67030498     0.38464772     2.08076088    -1.16384267
O       3.02646799     6.28700499     7.59750398    -1.16601011    -1.60971378     1.33503141
O       3.16029898     6.00645601     2.88189698    -1.19900509     0.93011028     2.35889521
O       3.02878700     1.93527301     8.23313402    -1.36979583     0.72232419    -0.39541499
O       2.71805999     1.36833299     2.72361397     0.75373357     2.62418867    -0.53244378
O       0.28471498     6.30859500     7.71278101    -0.61877477     0.25318819    -0.29790895
O       5.83500200     5.76061201     3.06771698     0.27401131     2.50717901    -1.98267583
O       5.24113701     1.53600401     7.80905598     3.17677525     0.21433649    -0.93831519
O       2.89330498     8.11473299     5.29044501     0.18844985    -3.32578848     3.47712572
O       2.75159501     7.90694599     1.11016000     0.70090072    -1.92667230     1.23755803
O       3.05729299     3.01425601     5.47941801    -2.39326419    -1.11910212    -0.58290504
O       5.86505599     8.20976301     6.18918801    -0.11045823    -0.24360312    -2.48340992
O       0.04505299     7.40879901     1.14613601     0.54630177    -0.06810366    -2.75279402
O       5.84973800     2.97015998     5.12649801    -0.25436473    -1.34655947     0.30683428
O       0.20989302     1.42473000     3.24923902     1.74841173     0.90694798    -3.64688262
