# total energy = -39027.42780071 eV

CRYSTAL
PRIMVEC
        5.93200024     0.00000000     0.00000000
        0.00000000     9.29399984     0.00000000
        0.00000000     0.00000000     9.29399984
PRIMCOORD
46 1
Ti      4.52197999     6.90914799     6.62338402    -1.69843667    -0.12071874     1.47063196
Ti      4.43461198     7.16522602     2.52483801     1.21831049    -1.14822630     0.21279538
Ti      4.57818799     2.37428603     6.96476399    -1.71321795    -1.08570913     2.47826617
Ti      4.04092702     2.37506900     2.00692001    -0.84553973    -2.24187629     2.12541196
Ti      1.46035601     6.59690400     6.98486903     2.06688412     1.85879129    -0.09119886
Ti      1.63600502     7.21094799     2.35333997     0.48403786     1.39044256     0.97139630
Ti      1.45117002     2.55541499     6.96671798     1.79674541    -1.95054680     1.01883446
Ti      0.96567000     2.15481500     2.51417398     0.41041429    -0.30407523    -1.15183485
Ti      2.92687598     4.52019302     4.50463700     1.94821172    -0.25525639     0.25435213
Ti      2.89657900     5.02239498     9.25253298     3.36773116    -2.10997351    -0.54821108
Ti      3.20228798     9.20655298     4.93475502    -3.18995859     1.48731997    -1.83162012
Ti      2.91116101     0.03787999     9.22361598     2.86665099     1.15425734    -0.09130402
Ti      0.06843299     4.47442802     4.59340199    -2.02187180     1.74316745    -1.82655196
Ti      5.91498799     4.66662001     9.09768497    -3.64667256    -1.36713113     0.61507444
Ti      0.13458898     9.17252000     4.94252599     2.18905836    -0.02092519     0.66824667
Ti      0.11653600     9.13274498     0.17693602    -3.02943299     1.78046286    -2.62883132
O       4.36715199     5.29666998     5.63052500     0.23541235     0.45074438    -0.49079189
O       4.61031502     5.49243900     0.82520202    -0.88255823     1.02498505     1.12698153
O       4.40522402     0.79876999     5.90497299     1.60313227    -0.27428590    -0.50574492
O       4.51498702     0.80009902     0.92014499     0.89376876     0.57310014    -1.30281651
O       1.44186000     5.45216401     5.61968703     0.10833039    -1.70458881    -2.10740266
O       1.94956800     6.21242698     0.73450099    -2.35195271    -0.22790138     1.33754672
O       1.39225000     0.89530800     5.91265802    -0.50011780    -1.30498472    -2.53866861
O       1.30710898     1.11906600     1.04693099     1.58949976    -2.12560505    -1.55622993
O       4.64361599     8.23231200     8.30790899    -0.57313587     1.18665814     0.68210312
O       4.50230201     8.28508700     4.06400698     1.23553868     0.09179793    -0.78462153
O       4.40364099     3.74941502     8.29339001     1.08987895     0.84728114     0.91635025
O       4.48351098     3.57578398     3.39478499    -0.95073388     1.51969505     2.10077847
O       1.75692800     8.53040199     8.19482302    -1.96908240    -1.15518654     0.86644769
O       1.61145998     8.60378300     3.80025298    -2.16415156     0.33887795     0.46975846
O       1.47051002     4.10804898     8.17116001     0.80358471    -1.23702195     0.97869721
O       1.51845999     3.50947299     3.60421699    -0.16740433     1.43331752     0.31858808
O       3.00925099     5.93728598     7.76319499     1.75523184     1.45298441    -1.11728255
O       2.93570499     6.22168700     3.26732598    -0.01983992    -0.90539734     0.03672282
O       2.89755898     1.66746302     7.86758600     0.14449579    -0.27908950     1.05670091
O       3.46734302     1.07453198     3.23000602    -0.88569780     2.37648670    -0.02279849
O       5.91845600     6.05358501     7.82164802    -1.75794539    -0.27164615     0.93004626
O       5.60594699     6.14678800     3.52613599     1.53405184    -0.48694115    -1.44065957
O       0.07856599     1.57123500     7.88973302    -1.16865347     0.80418789     0.07145818
O       2.88760002     7.69042597     5.98413002     0.61787617    -0.19506993     0.47552622
O       2.98852799     8.44371498     1.71502299    -0.44089036    -2.89973827    -0.51372203
O       2.73232598     3.18102600     5.77544702     1.40211075     0.01430511     0.18101267
O       0.17475200     7.57173998     5.94414401    -0.18690153     1.70074218    -0.57335570
O       0.14137399     7.89041799     1.47020702    -1.63066519    -0.51295044     0.78978019
O       5.80989301     3.15461699     5.85622402     0.62483512    -0.13784486     0.24528693
O       5.70093198     3.02160898     1.48228400     1.80906871     1.09308537    -1.27514783
