# total energy = -19939.86466176 eV

CRYSTAL
PRIMVEC
        6.69612974     0.00000000     0.00000000
        0.00002829     5.26756608     0.00000000
        0.00000000     0.00000000    10.66127009
PRIMCOORD
24 1
Ti      2.42704175     3.12155482     3.95525516     0.41837135    -0.36237887     0.58594229
Ti      4.26911634     2.14601144     6.70601499    -0.41837135     0.36237887    -0.58594229
Ti      5.77499098     2.14601327     1.37533732     0.41886037     0.36271980    -0.58646731
Ti      0.92116712     3.12155323     9.28593295    -0.41886037    -0.36271980     0.58646731
Ti      2.42702773     0.48777190     1.37538006     0.41883929    -0.38510280    -0.58674113
Ti      4.26913037     4.77979454     9.28589021    -0.41883929     0.38510280     0.58674113
Ti      0.92115309     0.48776989     6.70597224    -0.41933885    -0.38523007    -0.58697021
Ti      5.77500500     4.77979655     3.95529791     0.41933885     0.38523007     0.58697021
O       2.11937734     1.85479960     5.44036453     0.88606264     1.02149015    -0.73366559
O       4.57678081     3.41276666     5.22090563    -0.88606264    -1.02149015     0.73366559
O       1.22874667     1.85482085     0.10976377    -0.88537153     1.02176320    -0.73465932
O       5.46741154     3.41274547    10.55150608     0.88537153    -1.02176320     0.73465932
O       4.57676679     0.77898356     0.10972918    -0.88623311    -1.02276542    -0.73413430
O       2.11939137     4.48858270    10.55154067     0.88623311     1.02276542     0.73413430
O       5.46739752     0.77896237     5.44039911     0.88515838    -1.02217509    -0.73433742
O       1.22876057     4.48860395     5.22087104    -0.88515838     1.02217509     0.73433742
O       0.24330310     3.20403229     2.87987503    -1.13278528     0.19773179     0.18659891
O       6.45285505     2.06353397     7.78139512     1.13278528    -0.19773179    -0.18659891
O       3.59137519     2.06348484     2.45079395    -1.13363529    -0.19737544    -0.18708819
O       3.10478296     3.20408147     8.21047602     1.13363529     0.19737544     0.18708819
O       0.24328908     0.57024925     2.45075990    -1.13340157     0.19762843    -0.18725968
O       6.45286908     4.69731707     8.21051007     1.13340157    -0.19762843     0.18725968
O       3.10476894     0.57029837     7.78142912     1.13384072     0.19760863    -0.18691850
O       3.59138922     4.69726788     2.87984098    -1.13384072    -0.19760863     0.18691850
