# total energy = -4988.83064332 eV

CRYSTAL
PRIMVEC
        3.13069031     0.00000000     0.00000000
        0.97135088     4.80818733     0.00000000
       -0.00000647    -0.00006423     4.93028091
PRIMCOORD
6 1
Ti      2.05101731     2.40406156     2.46514057     0.00000000     0.00000000     0.00000000
Ti      0.00000000     0.00000000     0.00000000     0.00000000     0.00000000     0.00000000
O       1.75464582     0.93703242     0.96083919    -0.00224175    -0.13103272    -0.26646769
O       2.34738879     3.87109069     3.96944194     0.00224175     0.13103272     0.26646769
O       0.29636883     1.46700312     3.42598065     0.00223840     0.13124047    -0.26664972
O       0.67497557     3.34111987     1.50430049    -0.00223840    -0.13124047     0.26664972
