# total energy = -4989.70969114 eV

CRYSTAL
PRIMVEC
        2.84814017     0.00000000     0.00000000
        0.00000000     4.46260865     0.00000000
        0.00000000    -0.00005791     4.46260865
PRIMCOORD
6 1
Ti      1.42407003     2.23127532     2.23130427     0.00000000     0.00000000     0.00000000
Ti      0.00000000     0.00000000     0.00000000     0.00000000     0.00000000     0.00000000
O       1.42407003     0.86968540     0.86969668     0.00000000     0.52092575     0.52092575
O       1.42407003     3.59286523     3.59291186     0.00000000    -0.52092575    -0.52092575
O       0.00000000     1.36156644     3.10100186     0.00000000    -0.52059279     0.52059279
O       0.00000000     3.10098419     1.36160668     0.00000000     0.52059279    -0.52059279
