# total energy = -4988.70279547 eV

CRYSTAL
PRIMVEC
        2.89216152     0.00000000     0.00000000
        0.89734319     4.44184925     0.00000000
       -0.00000598    -0.00005933     4.55464046
PRIMCOORD
6 1
Ti      1.89474932     2.22089496     2.27732033     0.00000000     0.00000000     0.00000000
Ti      0.00000000     0.00000000     0.00000000     0.00000000     0.00000000     0.00000000
O       1.62095852     0.86563948     0.88763240    -1.98128820     0.92037711     0.95433317
O       2.16854012     3.57615045     3.66700827     1.98128820    -0.92037711    -0.95433317
O       0.27378835     1.35523145     3.16495355     1.98157874    -0.92140401     0.95534567
O       0.62354886     3.08655836     1.38968712    -1.98157874     0.92140401    -0.95534567
