# total energy = -19961.16338911 eV

CRYSTAL
PRIMVEC
        5.93400000     0.00000000     0.00000000
        0.00000000     9.29699974     0.00000000
        0.00000000     0.00000000     4.64899994
PRIMCOORD
24 1
Ti      4.44745702     6.87496902     2.32999299    -0.27255966     1.18202218     0.71987084
Ti      4.45135198     2.40172201     2.35602899     0.29875381    -1.71866740     0.03310682
Ti      1.47229398     6.95508698     2.23293802     0.35952803     0.80584085     0.58427827
Ti      1.49357501     2.41679499     2.32062698    -0.26289437    -1.12805162     0.83330590
Ti      2.96807100     4.64746501     0.00566802    -0.07511224    -0.37417047    -0.34607653
Ti      2.93303502     9.23419498     4.63142697     1.10843718     0.42111523    -0.58100808
Ti      5.92394198     4.68276198     0.01768299     0.01034355    -0.48079184    -0.23302945
Ti      0.02661201     9.27601998     0.06525899    -1.28896983     0.69017150    -0.74099246
O       4.42415602     5.57848899     0.90661298     0.23420882    -0.33847403    -0.73945494
O       4.45280198     0.94075697     0.96420900     0.21085573    -0.48519486    -0.76355287
O       1.44974802     5.54299501     0.90378198     0.21260640     0.34385072    -0.18963384
O       1.53571598     0.88886898     0.82266202    -0.30689419     0.34262842     0.74584696
O       4.49664198     8.31675001     3.72913103    -0.22726195     0.54422381     0.16888503
O       4.41989302     3.67761599     3.79624800     0.06683071     0.77583658     0.50933393
O       1.47909899     8.35923902     3.65310498     0.15818024    -0.07053670     0.48507324
O       1.46543198     3.72181600     3.79358899     0.19285235     0.34319329    -0.00481568
O       2.98446502     5.95876201     3.11630001    -0.50422848     0.27562827     0.60943395
O       2.91953799     1.42060998     3.22456999     0.33354239     0.43771813    -0.51352508
O       5.90819801     6.01861698     3.24664298     0.47161274     0.21369140    -0.55116965
O       0.05057702     1.49125599     3.27141900    -0.16002963     0.07276636    -0.64857952
O       3.00714598     7.86921301     1.38541202    -0.71373490    -0.44751044     0.24736078
O       3.00426900     3.38082100     1.49643600    -0.33241085    -0.46421722    -0.19388876
O       5.91310099     7.87634002     1.37381002     0.60064874    -0.62888101     0.45386235
O       0.00695402     3.32395202     1.44385399    -0.11430486    -0.31219092     0.11536853
