# total energy = -19518.50849297 eV

CRYSTAL
PRIMVEC
        7.60600008     0.00000000     0.00000000
        0.00000000     7.60600008     0.00000000
       -1.89786986    -1.89786986     4.85670466
PRIMCOORD
23 1
Ti      3.82342200     6.68488299     1.17454002    -1.15354232     0.47592963     1.46814596
Ti      3.85852502     2.84168702     1.26927000    -0.82701107    -0.21969545    -0.70472524
Ti     -0.01845098     6.52133500     1.16891402     0.52518041     1.04665046     0.13711518
Ti      0.05384199     2.76631202     1.12319501     0.20502241    -0.56851560     1.09770822
Ti      5.60886022     2.87021121     3.62198083     0.81743653     0.40321160     0.22388918
Ti      5.74340925    -0.90103577     3.61865279    -1.45746174    -0.94386440     0.01734338
Ti      2.04871422     2.88539521     3.75037379    -1.10726527     0.26456996    -0.15229318
Ti      1.78654420    -0.85376177     3.61765280     2.12465040    -0.47544266     0.27622760
O       3.57755302     4.86620101     0.82218899     0.45185741    -2.29821509     0.13845190
O       3.68143702     0.90955499     0.75067502     0.18062701     1.84287101     0.57870591
O       0.06735400     4.71208100     0.65822501    -0.24742866     0.13646624     1.23209546
O       0.00008398     0.80949599     0.83703998    -0.41755451     1.06146671    -1.03345119
O       5.73350321     4.72690621     3.81004180     0.05337098     0.09525427     1.23042373
O       5.93336721     0.93469620     4.13965980    -0.02885242    -0.24499383    -1.53589121
O       2.04054325     4.81099121     4.07399981    -0.32104529    -0.84509647    -0.77219615
O       1.76251320     0.98455623     4.14968380    -0.13131503     0.87441554     0.20270971
O       3.81805222     2.80278222     3.19491082     0.14866150    -0.25883614     0.70956509
O       3.68281320    -0.63689879     3.18237684     1.00812324    -0.48770888     0.24910168
O      -0.00734980    -0.95052876     3.15952580    -1.83058653    -0.13740263     0.36249508
O       5.60511899     6.63803901     1.67180799     1.37668099    -0.28079722    -0.34087416
O       5.77511602     2.94047102     1.69674399     0.47362643    -0.63825937    -1.52801437
O       1.75806399     6.51349799     1.69904898     0.80065236     0.31650652    -1.20815000
O       1.81361802     2.59662900     1.85443198    -0.64382658     0.88148659    -0.64838232
