# total energy = -19517.41974080 eV

CRYSTAL
PRIMVEC
        5.93400000     0.00000000     0.00000000
        0.00000000     9.29699974     0.00000000
        0.00000000     0.00000000     4.64899994
PRIMCOORD
23 1
Ti      4.55932102     6.94087900     2.34393200    -0.67896998     0.91788545    -0.47256457
Ti      4.45647298     2.35554701     2.35971899    -0.24009793    -0.34124414     0.37399255
Ti      1.52386098     7.09817598     2.31712202     0.03515471     0.59766035    -0.47951426
Ti      1.43772299     2.30215001     2.26052900    -0.02621061    -0.23134975     0.95350939
Ti      2.91451901     4.46363598     0.03265600    -0.16543101    -0.89439173    -0.02541588
Ti      3.02055099     0.05296800     0.01351302    -0.23474823     0.19737029    -0.33384656
Ti      5.91535402     4.68738900     0.02007598     0.09022184    -0.55615116    -0.11271849
Ti      0.04266402     0.03817400     0.07909401    -0.72875015     0.14279964    -0.74196228
O       4.45515703     5.50640801     0.91285499    -0.37748796     0.41284116    -0.26143681
O       4.32657399     0.95111102     0.99156699     0.98121406    -0.38698331    -0.62309705
O       1.55761202     5.46830000     0.78378803    -0.17563444     1.31465567     0.24571708
O       1.45222398     0.91513802     0.88514198    -0.50228164    -0.68099549    -0.10930021
O       4.30405099     8.44456700     3.73853800     1.11096663    -1.13679337    -0.37260878
O       4.49023201     3.62483897     3.81202198    -0.44220882     0.79234693    -0.93043733
O       1.29177300     8.38150500     3.64854199     0.76538864     0.14811539     0.89675921
O       1.51899102     3.62974598     3.62133402     0.33079260     2.17968282     1.26903888
O       2.80730299     1.38246699     3.20289399     1.58794424    -0.26005355     0.46308388
O       0.06847300     6.11169201     3.07033599    -0.19475908    -1.89802788     1.92163782
O       0.01561502     1.52973401     3.30318901    -1.15597124    -0.94284779    -0.33006523
O       2.98638001     7.93361298     1.49459002    -0.16605399    -0.63177325    -0.30033967
O       2.86935600     3.17382501     1.38667300     1.48560401     0.68451019    -0.35139049
O       5.93215503     7.81598100     1.38919299    -0.07597253     1.08605160    -1.32969046
O       0.07990201     3.29898099     1.31029103    -1.22270836    -0.51330808     0.65064901
