# total energy = -19961.23649212 eV

CRYSTAL
PRIMVEC
        5.93400000     0.00000000     0.00000000
        0.00000000     9.29699974     0.00000000
        0.00000000     0.00000000     4.64899994
PRIMCOORD
24 1
Ti      4.43314600     6.86320297     2.31457298     0.01921695     0.97321047     0.82460760
Ti      4.46323301     2.39138501     2.34823601     0.17991635    -1.62021777     0.11567526
Ti      1.47612697     6.96904102     2.24891102    -0.01470054     0.39615829     0.45862044
Ti      1.49711700     2.42366800     2.31972103    -0.17343280    -1.21280421     0.77486213
Ti      2.96206500     4.64588701     0.00019199    -0.15479332    -0.50877008    -0.23157009
Ti      2.93421398     9.23033701     4.61758698     0.96907074     0.65759433    -0.54242532
Ti      5.92456599     4.68167500     0.02537601     0.11870582    -0.44640898    -0.35723563
Ti      0.02432898     9.25899900     0.07406301    -1.20233107     0.94874153    -0.70449487
O       4.44892300     5.58320502     0.91280297    -0.00766395    -0.14878002    -0.54478534
O       4.46759899     0.96873600     0.96477400     0.11713745    -0.59964524    -0.72133226
O       1.45162702     5.54824101     0.89932901     0.21650599     0.40286785    -0.08387096
O       1.53905700     0.87988000     0.81097699    -0.29325165     0.44226539     0.85737632
O       4.49805901     8.34874099     3.74583398    -0.24016144     0.20699136    -0.03096561
O       4.41941999     3.70372501     3.82373299     0.13434713     0.38896409     0.04048049
O       1.48080898     8.37487701     3.66189001     0.19633928    -0.23285616     0.34629661
O       1.47944301     3.70899599     3.79310400     0.01014249     0.46850659     0.13333000
O       2.95889301     5.95666001     3.16184301    -0.05697284     0.66090900     0.07847678
O       2.90420799     1.43044601     3.21233599     0.42483690     0.27826391    -0.35745186
O       0.01604598     6.02401501     3.21195298    -0.01072253     0.16741384    -0.19282458
O       0.06226199     1.47392602     3.25094101    -0.41481911     0.24859132    -0.57053443
O       3.00585399     7.86252902     1.38808098    -0.43638707    -0.40149359     0.29095874
O       2.97904201     3.36872798     1.49182502    -0.05238445    -0.30561095    -0.14207227
O       5.91204301     7.86626099     1.38348502     0.45928584    -0.41628721     0.39132976
O       5.89906197     3.34140000     1.44767698     0.21211558    -0.34760351     0.16754857
