# total energy = -19960.39619224 eV

CRYSTAL
PRIMVEC
        7.60600008     0.00000000     0.00000000
        0.00000000     7.60600008     0.00000000
       -1.89786986    -1.89786986     4.85670466
PRIMCOORD
24 1
Ti      3.73009101     6.57252602     1.33952701     0.01673403     0.90292240    -1.63702559
Ti      3.79968602     2.91874200     1.24553799    -0.24035658    -1.07400135    -0.73628194
Ti     -0.03670299     6.58952700     1.15500899     0.18033159     1.25203206     1.11216734
Ti      0.05301800     2.92184001     1.13897502    -0.51765865    -0.71082210     0.02531663
Ti      5.78438424     2.88976124     3.55579283     0.14956447     0.58891808     0.78309532
Ti      5.70674621    -0.98596379     3.66996679     2.20703166    -0.11255368     0.08500764
Ti      1.86301121     2.90144224     3.59380283    -0.31854797     0.08596152     0.66450134
Ti      1.90210222    -0.96536176     3.63131981    -1.98002399    -0.13221389     1.48171290
O       3.64985800     4.74906800     0.79211299     0.32688761    -0.19549750    -0.16611672
O       3.55316800     0.95140302     0.82607500     1.03500336     0.30246854     0.83560704
O       0.06368003     4.80299502     0.79747700    -0.32664644    -1.18087701    -1.09256498
O       0.20986000     0.96150501     0.70649100    -1.20730050    -0.13108723     0.78073068
O      -1.50651979     4.78400423     4.06811282    -1.43583052    -1.47984808    -0.26001756
O       5.95570722     0.95461121     4.13030480    -1.25295483     0.68005292    -1.53615578
O       1.60497322     4.76718020     4.18600282     0.96015929    -1.05494484    -0.20865538
O       1.77507524     0.93201121     3.99011781     0.96566120     0.54254925     0.65066932
O       3.83493123     3.04523224     3.28488080    -0.58220107    -0.62336316    -0.70325997
O       3.81273622    -1.22229880     3.33382080    -0.12657160     0.68208821    -0.52001224
O      -0.01126079     2.74267922     3.18652580     0.05564564     0.15636041    -0.30463624
O      -0.04467277    -1.07740276     3.14714379    -0.02658702     1.08546565     0.06773111
O       5.74124798     6.52188799     1.55931501    -2.09319525     0.73705147     0.07389122
O       5.68811298     3.08308699     1.54491599    -0.16114112    -0.90730947     0.48105718
O       1.79771402     6.47945300     1.77390200     2.37010908     0.43320970    -0.68430810
O       1.81453101     2.94952001     1.63134800     2.00188737     0.15343784     0.80754626
