# total energy = -19961.95128216 eV

CRYSTAL
PRIMVEC
        7.60600008     0.00000000     0.00000000
        0.00000000     7.60600008     0.00000000
       -1.89786986    -1.89786986     4.85670466
PRIMCOORD
24 1
Ti      3.79683798     6.55053801     1.22322999    -0.66206831     0.96344902     0.01936916
Ti      3.81745399     2.86216602     1.22600801    -0.80036594    -0.84134677    -0.49946654
Ti     -0.00113397     6.70602701     1.19479301     0.65574416     0.15116215     0.42747974
Ti     -0.01515802     2.90764600     1.21177098     0.57113350    -0.32653434    -0.07410076
Ti      5.71021523     2.87027323     3.64552584     0.36724803    -0.29755671    -0.13993774
Ti      5.73585921    -0.96259675     3.61561081    -0.20089528     0.47158266     0.01727396
Ti      1.91007423     2.83932123     3.63839083    -0.47590546    -0.31735241    -0.36410974
Ti      1.90955722    -1.01654177     3.66951979     0.05908834     0.41861869     0.23162383
O       3.64425099     4.68678902     0.75977200     0.53491230     0.60805970     0.37419309
O       3.69193002     0.85398498     0.79811502     0.56433396     1.06597025     0.15340004
O       0.03757402     4.81076202     0.75131401    -0.24056844     0.12143762    -0.03947159
O      -0.01708401     0.99720399     0.76142399    -0.06015998    -0.50132236     0.03165672
O       5.82402824     4.81040424     3.98706980    -0.07556038    -0.61902006     0.56856162
O       5.72153523     0.97998822     4.05079179    -0.20516408     0.11168748    -0.23332718
O       1.79747621     4.70761924     4.08008381     0.26602572    -0.28622765    -0.16296995
O       1.81463923     0.91149024     4.13085779     0.73056586    -0.12249434    -0.35563486
O       3.81757422     2.99180921     3.25371982    -0.00757062    -0.62646597     0.03131528
O       3.79285021    -1.04359379     3.21182481     0.47102139     0.02184873     0.52155258
O       0.04627221     2.68916623     3.15205784    -1.49392385     0.48995217     0.39080011
O       0.04735422    -0.99068479     3.16951180    -0.92456415     0.29193936    -0.30313009
O       5.67162699     6.64612700     1.62056299     0.99237343     0.02256504    -0.15450922
O       5.67385599     2.96144502     1.60417099     0.27596586    -0.16076034     0.17227452
O       1.94913597     6.69166202     1.66154798    -1.25379378    -0.18722857    -0.21947073
O       1.84850900     2.97710501     1.68174202     0.91212747    -0.45196385    -0.39337276
