# total energy = -19881.05392786 eV

CRYSTAL
PRIMVEC
        6.94197790     0.00000000     0.00000000
        0.00002186     2.80248287     0.00000000
        0.00000000     0.00000000    10.74445097
PRIMCOORD
24 1
Ti      2.51614615     1.66074872     3.98611469    -1.28980749     0.71674052    -1.84574859
Ti      4.42585381     1.14173405     6.75833638     1.28980749    -0.71674052     1.84574859
Ti      5.98701662     1.14173501     1.38606791    -1.28811133    -0.71595145     1.84779879
Ti      0.95498333     1.66074791     9.35838326     1.28811133     0.71595145    -1.84779879
Ti      2.51613532     0.25950733     1.38611099    -1.28980749     0.71674052     1.84574859
Ti      4.42586464     2.54297554     9.35834018     1.28980749    -0.71674052    -1.84574859
Ti      0.95497250     0.25950633     6.75829330     1.28811133     0.71595145     1.84779879
Ti      5.98702745     2.54297654     3.98615777    -1.28811133    -0.71595145    -1.84779879
O       2.19718762     0.98680184     5.48281108     9.09966351    -1.80315774     5.27749510
O       4.74481238     1.81568093     5.26164000    -9.09966351     1.80315774    -5.27749510
O       1.27385746     0.98681313     0.11062015    -9.09859367    -1.80354726     5.27701302
O       5.66814259     1.81566964    10.63383063     9.09859367     1.80354726    -5.27701302
O       4.74480155     0.41443950     0.11058530    -9.09966351     1.80315774     5.27749510
O       2.19719841     2.38804327    10.63386548     9.09966351    -1.80315774    -5.27749510
O       5.66813176     0.41442821     5.48284598     9.09859367     1.80354726     5.27701302
O       1.27386814     2.38805461     5.26160509    -9.09859367    -1.80354726    -5.27701302
O       0.25223143     1.70462894     2.90234425     3.40190139    -1.31572628     2.50460456
O       6.68976853     1.09785383     7.84210683    -3.40190139     1.31572628    -2.50460456
O       3.72322952     1.09782778     2.46991541     3.39936165     1.31611991    -2.50570011
O       3.21877048     1.70465504     8.27453547    -3.39936165    -1.31611991     2.50570011
O       0.25222060     0.30338750     2.46988109     3.40190139    -1.31572628    -2.50460456
O       6.68977936     2.49909527     8.27456978    -3.40190139     1.31572628     2.50460456
O       3.21875965     0.30341355     7.84214104    -3.39936165    -1.31611991    -2.50570011
O       3.72324035     2.49906922     2.90230998     3.39936165     1.31611991     2.50570011
