# total energy = -19923.61307368 eV

CRYSTAL
PRIMVEC
        7.60318031     0.00000000     0.00000000
        0.00002675     4.35727558     0.00000000
        0.00000000     0.00000000    11.50297632
PRIMCOORD
24 1
Ti      2.75580312     2.58211761     4.26752233     0.33866969    -0.05843554     2.09274145
Ti      4.84740412     1.77515833     7.23545447    -0.33866969     0.05843554    -2.09274145
Ti      6.55726298     1.77515987     1.48392015     0.33864912     0.05860035    -2.09300756
Ti      1.04594427     2.58211619    10.01905677    -0.33864912    -0.05860035     2.09300756
Ti      2.75578987     0.40347988     1.48396625     0.33866969    -0.05843554    -2.09274145
Ti      4.84741738     3.95379617    10.01901067    -0.33866969     0.05843554     2.09274145
Ti      1.04593101     0.40347816     7.23540837    -0.33864912    -0.05860035    -2.09300756
Ti      6.55727624     3.95379784     4.26756843     0.33864912     0.05860035     2.09300756
O       2.40646407     1.53427087     5.86988096     1.34874080     0.94768841    -1.41244350
O       5.19674317     2.82300500     5.63309584    -1.34874080    -0.94768841     1.41244350
O       1.39518951     1.53428843     0.11842957    -1.34865569     0.94757836    -1.41282274
O       6.20801780     2.82298751    11.38454687     1.34865569    -0.94757836     1.41282274
O       5.19672992     0.64436721     0.11839226    -1.34874080    -0.94768841    -1.41244350
O       2.40647733     3.71290872    11.38458418     1.34874080     0.94768841     1.41244350
O       6.20800454     0.64434966     5.86991827     1.34865569    -0.94757836    -1.41282274
O       1.39520259     3.71292628     5.63305847    -1.34865569     0.94757836     1.41282274
O       0.27625739     2.65034204     3.10724098    -1.92993271     0.67471608     0.53611763
O       7.32694986     1.70693390     8.39573582     1.92993271    -0.67471608    -0.53611763
O       4.07785692     1.70689315     2.64428395    -1.92981033    -0.67465361    -0.53650381
O       3.52535032     2.65038278     8.85869261     1.92981033     0.67465361     0.53650381
O       0.27624413     0.47170419     2.64424724    -1.92993271     0.67471608    -0.53611763
O       7.32696311     3.88557174     8.85872932     1.92993271    -0.67471608     0.53611763
O       3.52533706     0.47174493     8.39577247     1.92981033     0.67465361    -0.53650381
O       4.07787018     3.88553100     3.10720427    -1.92981033    -0.67465361     0.53650381
