# total energy = -4985.37184399 eV

CRYSTAL
PRIMVEC
        3.32812390     0.00000000     0.00000000
        2.00564284     4.81354249     0.00000000
       -0.00001279    -0.00006928     5.32646414
PRIMCOORD
6 1
Ti      2.66687689     2.40673644     2.66323201     0.00000000     0.00000000     0.00000000
Ti      0.00000000     0.00000000     0.00000000     0.00000000     0.00000000     0.00000000
O       2.05492962     0.93807492     1.03804939     0.72598827     0.05836226    -0.52644308
O       3.27882415     3.87539797     4.28841458    -0.72598827    -0.05836226     0.52644308
O       0.61194179     1.46863356     3.70128257    -0.72658580    -0.05806967    -0.52558870
O       1.39368825     3.34483953     1.62518146     0.72658580     0.05806967     0.52558870
