# total energy = -19075.04590069 eV

CRYSTAL
PRIMVEC
        5.17600016     0.00000000     0.00000000
        0.00000000     5.50899976     0.00000000
        0.00000000     0.00000000     9.26300011
PRIMCOORD
22 1
Ti      1.71492101     3.35100499     3.28006100     1.05103857     0.55422720     0.04146908
Ti      3.60641001     2.24100998     5.95063099     0.74214355     0.27296744    -0.85867318
Ti      4.46212502     2.26449201     1.22018701    -1.04428890    -0.65940130    -1.15911827
Ti      0.77392601     3.27240301     8.14398999     0.21242077     0.18396970     0.18506653
Ti      1.81132203     0.67145502     1.26697998     0.74872840    -0.73673009    -0.46633067
Ti      3.18687299     4.96102899     8.07297498     0.87551752     0.04567618     0.87165315
Ti      0.76105801     0.24800998     5.95741297    -0.02826980     1.16232675    -0.94968538
Ti      4.32921099     4.89690901     3.40910299    -0.33752632     0.83459762     0.70545312
O       3.42743602     3.38626603     4.37598999    -0.17581416    -0.08219049     1.28863173
O       0.97291000     2.02995600     0.30415801    -0.44396026     0.14977479    -1.42184140
O       4.34198898     3.75916501     9.08955999    -0.83424050    -0.14164650    -0.65440513
O       3.41442900     0.86362399     0.15896802     0.18756102    -0.09202136    -1.12038690
O       1.61323601     4.67467801     9.05823799     0.42090954     1.73639131     0.61961218
O       4.50207102     0.89078798     4.72533498     0.02828343    -0.27431881     0.33571035
O       0.88053200     4.64443399     4.40943902     0.19784081    -0.61612216     1.39601543
O       0.04801998     3.58821800     2.28193899     0.46885729    -0.09452330     1.12464953
O       0.10484203     2.06893498     6.91878802    -0.90540814    -1.58360627    -1.70632353
O       2.72849198     2.26257200     2.09764502    -0.34103793    -1.36200461     0.49252096
O       2.53008200     3.26936601     7.13891300    -0.32568896     0.61987263    -0.16381687
O       0.00449398     0.72864098     2.11489498     0.64902253    -0.45451901     0.79225771
O       2.63541097     0.67090902     6.37532102    -1.62955910    -1.12740396     1.14903286
O       2.57151102     4.76214402     2.45688800     0.48347042     1.66468398    -0.50149129
