# total energy = -4949.24908506 eV

CRYSTAL
PRIMVEC
        5.69711591     0.00000000     0.00000000
       -0.00000744     2.44162127     0.00000000
       -2.84859063    -1.22089896     6.18264190
PRIMCOORD
6 1
Ti     -0.00024343     1.83129177     1.54566042    -0.02256658    -0.01739146    41.11552246
Ti      2.84876098    -0.61056940     4.63698137     0.02256658     0.01739146   -41.11552246
O       0.00006053     0.61039035     1.00710184     0.02035800     0.01735315   -35.57619846
O       2.84845685     0.61033195     5.17554001    -0.02035800    -0.01735315    35.57619846
O      -0.00002382    -0.61043455     4.09842279    -0.00150795    -0.00006351    -1.44139053
O       2.84854114     1.83115679     2.08421906     0.00150795     0.00006351     1.44139053
