# total energy = -39480.82500459 eV

CRYSTAL
PRIMVEC
        5.93188753     0.00000000     0.00000000
        0.00000000     9.29428401    -0.00002646
        0.00000000    -0.00002646     9.29428401
PRIMCOORD
47 1
Ti      4.44891576     6.97336053     6.95692416     0.00000000    -0.00790049    -0.04731629
Ti      4.44891576     6.99545008     2.34829485     0.00000000     0.33431270     0.33431270
Ti      4.44891576     2.32216717     6.96932240     0.00000000     0.11844177     0.11844177
Ti      4.44891576     2.30979538     2.32623176     0.00000000    -0.04731629    -0.00790049
Ti      1.48297199     6.95586750     6.97393907     0.00000000    -0.08910418     0.05163934
Ti      1.48297199     6.98146822     2.33431299     0.00000000     0.03841538     0.03841538
Ti      1.48297199     2.21765400     6.86480924     0.00000000    -0.47095917    -0.47095917
Ti      1.48297199     2.32681030     2.30873872     0.00000000     0.05163934    -0.08910418
Ti      2.96554640     4.65866912     4.63535967    -0.01683508    -0.08703110     0.06718346
Ti      3.03454694     4.69272129     0.04556606     0.23666962     0.23473384     0.23473384
Ti      2.97421844    -0.00948083     4.63767440     0.19733995    -0.09702498    -0.09702498
Ti      2.96554640    -0.01176911     0.01154035    -0.01683508     0.06718346    -0.08703110
Ti      0.00039737     4.65866912     4.63535967     0.01683508    -0.08703110     0.06718346
Ti     -0.06860317     4.69272129     0.04556606    -0.23666962     0.23473384     0.23473384
Ti     -0.00827468    -0.00948083     4.63767440    -0.19733995    -0.09702498    -0.09702498
Ti      0.00039737    -0.01176911     0.01154035     0.01683508     0.06718346    -0.08703110
O       4.44891576     5.55187227     5.55465583     0.00000000     0.05548648    -0.01130514
O       4.44891576     5.56747506     0.92031982     0.00000000     0.01947586     0.01947586
O       4.44891576     0.92278407     5.56993931     0.00000000     0.00764184     0.00764184
O       4.44891576     0.90752705     0.90474350     0.00000000    -0.01130514     0.05548648
O       1.48297199     5.55438467     5.55635058     0.00000000     0.07116611    -0.01894698
O       1.48297199     5.50391132     0.85675609     0.00000000    -0.14667480    -0.14667480
O       1.48297199     0.91490399     5.56205923     0.00000000    -0.16354922    -0.16354922
O       1.48297199     0.90922180     0.90725590     0.00000000    -0.01894698     0.07116611
O       4.44891576     8.38901868     8.38286001     0.00000000    -0.02961758    -0.04827634
O       4.44891576     8.38533936     3.73818413     0.00000000    -0.03608725    -0.03608725
O       4.44891576     3.74117664     8.38833187     0.00000000     0.14969919     0.14969919
O       4.44891576     3.73573124     3.74188990     0.00000000    -0.04827634    -0.02961758
O       1.48297199     8.38602813     8.38362675     0.00000000    -0.03813333    -0.02840684
O       1.48297199     8.37883576     3.73168053     0.00000000    -0.01888707    -0.01888707
O       1.48297199     3.73649797     3.73889935     0.00000000    -0.02840684    -0.03813333
O       2.95951331     6.02461647     7.88994823    -0.04326320    -0.08005415    -0.03744942
O       2.96183839     6.05887187     3.22780576     0.03249181     0.00476528    -0.08746948
O       2.94201145     1.45331037     7.89781223    -0.03114456     0.11016178     0.13786569
O       2.96604994     1.41906230     3.23091493     0.00938427    -0.02092827     0.00969023
O       0.00643046     6.02461647     7.88994823     0.04326320    -0.08005415    -0.03744942
O       0.00410538     6.05887187     3.22780576    -0.03249181     0.00476528    -0.08746948
O       0.02393231     1.45331037     7.89781223     0.03114456     0.11016178     0.13786569
O      -0.00010618     1.41906230     3.23091493    -0.00938427    -0.02092827     0.00969023
O       2.96604994     7.87804371     6.06619107     0.00938427     0.00969023    -0.02092827
O       2.96183839     7.87496099     1.41171663     0.03249181    -0.08746948     0.00476528
O       2.94201145     3.25065700     6.10046561    -0.03114456     0.13786569     0.11016178
O       2.95951331     3.24281946     1.37748770    -0.04326320    -0.03744942    -0.08005415
O      -0.00010618     7.87804371     6.06619107    -0.00938427     0.00969023    -0.02092827
O       0.00410538     7.87496099     1.41171663    -0.03249181    -0.08746948     0.00476528
O       0.02393231     3.25065700     6.10046561     0.03114456     0.13786569     0.11016178
O       0.00643046     3.24281946     1.37748770     0.04326320    -0.03744942    -0.08005415
