# total energy = -19936.91768770 eV

CRYSTAL
PRIMVEC
        5.88525746     0.00000000     0.00000000
        2.40914053     5.78185941     0.00000000
        0.00000000     0.00000000    10.75912176
PRIMCOORD
24 1
Ti      3.56077726     3.42632464     3.99155743     0.62741265    -2.82818727     0.87703935
Ti      4.73362082     2.35553493     6.76756445    -0.62741265     2.82818727    -0.87703935
Ti      6.05714137     2.35553690     1.38796049    -1.70825957    -0.86528426     0.53799325
Ti      2.23725676     3.42632290     9.37116144     1.70825957     0.86528426    -0.53799325
Ti      2.35620711     0.53539491     1.38800362     0.62741265    -2.82818727    -0.87703935
Ti      5.93819101     5.24646483     9.37111831    -0.62741265     2.82818727     0.87703935
Ti      1.03268647     0.53539278     6.76752125     1.70825957     0.86528426     0.53799325
Ti      7.26171164     5.24646696     3.99160056    -1.70825957    -0.86528426    -0.53799325
O       2.71102047     2.03589105     5.49029750     1.63761900     2.08622370    -0.96022794
O       5.58337756     3.74596853     5.26882438    -1.63761900    -2.08622370     0.96022794
O       1.92825108     2.03591441     0.11077119     0.08604920    -0.82764639     1.35319678
O       6.36614708     3.74594526    10.64835033    -0.08604920     0.82764639    -1.35319678
O       4.37880739     0.85503869     0.11073626    -1.63761900    -2.08622370    -0.96022794
O       3.91559069     4.92682088    10.64838526     1.63761900     2.08622370     0.96022794
O       5.16157684     0.85501538     5.49033237    -0.08604920     0.82764639     1.35319678
O       3.13282114     4.92684428     5.26878945     0.08604920    -0.82764639    -1.35319678
O       1.67920088     3.51685482     2.90630722     0.57761499     2.19956826     2.07257397
O       6.61519715     2.26500476     7.85281465    -0.57761499    -2.19956826    -2.07257397
O       4.10020769     2.26495096     2.47328794     1.08069805     1.55629369     0.83163134
O       4.19419033     3.51690862     8.28583376    -1.08069805    -1.55629369    -0.83163134
O       0.47463069     0.62592492     2.47325354     0.57761499     2.19956826    -2.07257397
O       7.81976739     5.15593465     8.28586810    -0.57761499    -2.19956826     2.07257397
O       2.98962016     0.62597878     7.85284894    -1.08069805    -1.55629369     0.83163134
O       5.30477786     5.15588080     2.90627288     1.08069805     1.55629369    -0.83163134
