# total energy = -4989.96503948 eV

CRYSTAL
PRIMVEC
        2.87870747     0.00000000     0.00000000
        0.22538454     4.50486840     0.00000000
       -0.00000124    -0.00005854     4.51191423
PRIMCOORD
6 1
Ti      1.55204528     2.25240478     2.25595701     0.00000000     0.00000000     0.00000000
Ti      0.00000000     0.00000000     0.00000000     0.00000000     0.00000000     0.00000000
O       1.48327754     0.87792098     0.87930557    -0.45674996     0.40872431     0.40918582
O       1.62081296     3.62688858     3.63260841     0.45674996    -0.40872431    -0.40918582
O       0.06876712     1.37446007     3.13526350     0.45624525    -0.40745572     0.40779897
O       0.15661607     3.13034969     1.37665048    -0.45624525     0.40745572    -0.40779897
