# total energy = -19518.00141881 eV

CRYSTAL
PRIMVEC
        7.60600008     0.00000000     0.00000000
        0.00000000     7.60600008     0.00000000
       -1.89786986    -1.89786986     4.85670466
PRIMCOORD
23 1
Ti      3.70995999     6.67106898     1.20209000     1.03821981    -1.41193494    -0.99691811
Ti      3.70025202     2.66710499     1.21517602     2.35795213     2.00852828     0.02932036
Ti     -0.08250000     6.67620200     1.16327098    -0.14826735    -0.95896501     0.03832668
Ti      0.09506198     2.79501200     1.26308000    -2.17429276     1.54601339    -0.70926144
Ti      5.69517522     2.87907720     3.65332982    -0.71669836     0.68461766    -0.33104817
Ti      5.64202423    -0.79967477     3.58121482     1.64060097    -0.19775853     0.50643475
Ti      1.95948224     2.80493121     3.68040280     1.09029316     0.03348375     2.41973396
Ti      1.90910123    -1.01308577     3.51795083    -0.93542218     0.46016079     0.27381719
O       3.73727702     4.68126298     0.93759699    -0.56894317     0.72413605    -0.97049384
O       3.99508398     0.90972898     0.78680799    -0.55565031    -0.12745657    -0.45618740
O       0.21629099     4.68497802     0.90932898    -0.08508015     1.03892378     0.01846978
O      -0.09899298     0.99983898     0.65402302     0.21777200    -0.26635636     0.31551741
O       5.69920623     4.70372322     4.15451180     0.49185325     1.02808709    -1.15924914
O       5.79122322     1.09111824     4.09398080     0.45843841    -2.46421020    -1.00576451
O       1.94208924     4.75060621     3.91074180    -0.66341634    -0.24915233     0.73752610
O       1.86431923     0.84878724     4.09703082    -0.52836987     0.93501184     0.28477806
O       3.82795123     2.93601524     3.62109081    -0.53231060    -0.89620796    -1.87712840
O       3.86061220    -0.76762976     3.16122081    -1.26479579    -0.48363703    -0.25745314
O       0.02323025    -0.98532079     3.19195780    -0.43207353     0.20167895    -0.06907245
O       5.66031699     6.69444602     1.47042800     0.77762298    -0.32386707     1.00148979
O       5.75702001     2.87582398     1.64472602     0.14038048    -0.16732488     1.37046046
O       1.89032703     6.92209802     1.49755998     0.20551195    -0.51037394     1.06018218
O       1.90252102     2.71507501     1.77299599     0.18667476    -0.60339674    -0.22348063
