# total energy = -19923.99407976 eV

CRYSTAL
PRIMVEC
        7.02220226     0.00000000     0.00000000
        0.00002351     3.59847063     0.00000000
        0.00000000     0.00000000    10.60943175
PRIMCOORD
24 1
Ti      2.54522462     2.13245043     3.93602351    -0.31922289     0.79861039     0.41235188
Ti      4.47700131     1.46602036     6.67340835     0.31922289    -0.79861039    -0.41235188
Ti      6.05620555     1.46602164     1.36865003    -0.31909253    -0.79927014    -0.41106941
Ti      0.96602043     2.13244931     9.24078198     0.31909253     0.79927014     0.41106941
Ti      2.54521292     0.33321517     1.36869258    -0.31922289     0.79861039    -0.41235188
Ti      4.47701306     3.26525573     9.24073944     0.31922289    -0.79861039     0.41235188
Ti      0.96600868     0.33321379     6.67336580     0.31909253     0.79927014    -0.41106941
Ti      6.05621725     3.26525711     3.93606606    -0.31909253    -0.79927014     0.41106941
O       2.22257971     1.26708273     5.41391182     3.70002837    -0.59782259     1.25078739
O       4.79964627     2.33138806     5.19552003    -3.70002837     0.59782259    -1.25078739
O       1.28857921     1.26709722     0.10923004    -3.70102210    -0.59801773     1.25079999
O       5.73364682     2.33137358    10.50020150     3.70102210     0.59801773    -1.25079999
O       4.79963451     0.53215274     0.10919563    -3.70002837     0.59782259     1.25078739
O       2.22259141     3.06631805    10.50023596     3.70002837    -0.59782259    -1.25078739
O       5.73363512     0.53213826     5.41394623     3.70102210     0.59801773     1.25079999
O       1.28859075     3.06633258     5.19548563    -3.70102210    -0.59801773    -1.25079999
O       0.25514725     2.18879386     2.86587219     0.24492441    -0.07332120     0.80742362
O       6.76707868     1.40967699     7.74355967    -0.24492441     0.07332120    -0.80742362
O       3.76625717     1.40964339     2.43887746     0.24543400     0.07353152    -0.80836182
O       3.25596876     2.18882745     8.17055424    -0.24543400    -0.07353152     0.80836182
O       0.25513555     0.38955849     2.43884358     0.24492441    -0.07332120    -0.80742362
O       6.76709043     3.20891230     8.17058812    -0.24492441     0.07332120     0.80742362
O       3.25595706     0.38959208     7.74359349    -0.24543400    -0.07353152    -0.80836182
O       3.76626892     3.20887871     2.86583831     0.24543400     0.07353152     0.80836182
