# total energy = -79406.57559660 eV

CRYSTAL
PRIMVEC
       10.35150501     0.00002646     0.00000000
        0.00002858    11.01713167     0.00000000
        0.00000000     0.00000000     9.26345890
PRIMCOORD
95 1
Ti      7.01764613     8.82597764     3.47354083     0.02009729    -0.00119068     0.04753303
Ti      7.14708457     3.23022399     3.41820207     0.01854717    -0.01338388    -0.02697242
Ti      1.84723613     8.81116713     3.45220570     0.00164988     0.03096175    -0.02696883
Ti      1.77248021     3.14313188     3.50216186     0.01230299    -0.04660923     0.04170279
Ti      8.48799455     7.72745673     5.80091173    -0.00145165     0.01548499     0.01055567
Ti      8.49611585     2.22374149     5.83191029    -0.01695643    -0.01639773     0.04904947
Ti      3.28577167     7.71175497     5.80981317    -0.01324787    -0.04809456    -0.04540287
Ti      3.33102041     2.19987811     5.83550806     0.01587683    -0.05455729     0.02372615
Ti      9.53597332     7.77283580     1.20289028    -0.01819905    -0.00583281    -0.04233092
Ti      9.66486479     2.18204785     1.15657022     0.02549558     0.02808160     0.00103410
Ti      4.45952950     7.69286499     1.21813353    -0.01710324     0.01024354    -0.01954528
Ti      4.47833758     2.23480871     1.21241627    -0.04066638    -0.04889340    -0.00628378
Ti      5.89760818     8.81360847     8.10609965     0.00130458    -0.00801002     0.02529195
Ti      5.92009633     3.29305198     8.09189620    -0.01469180     0.03477753     0.03883216
Ti      0.67280037     8.90154191     7.94713294     0.03030638    -0.02301370     0.00478457
Ti      0.73362524     3.30082634     8.07300833    -0.02052332     0.01218549    -0.03154179
Ti      7.02787965     6.02517343     1.18954095    -0.00984244     0.01632703    -0.00310975
Ti      7.02645433     0.53851449     1.22458700    -0.00310975     0.05637326    -0.00793340
Ti      1.74422723     6.28921968     0.95700907    -0.06663351     0.07983664    -0.10366178
Ti      1.88181858     0.51491577     1.16091891     0.00622850     0.02720922    -0.01302161
Ti      8.41726473    10.47718400     8.10484158    -0.03427462    -0.00506739     0.02431133
Ti      8.50822045     4.95442349     8.09082348     0.02798467    -0.01135528    -0.01276348
Ti      3.32844727    10.46373585     8.09315367     0.01394078    -0.02121752    -0.03439186
Ti      3.30740445     4.94949894     8.07926883     0.00824913    -0.03906870    -0.04275875
Ti      5.89923049     6.14259475     5.96377650     0.00831572     0.01681913     0.00877672
Ti      5.89789313     0.54707033     5.82715668     0.01610051    -0.00680083    -0.01703151
Ti      0.73349448     6.02899660     5.80546844    -0.00673115     0.03643229    -0.03146800
Ti      0.69936445     0.51389004     5.85432069    -0.01036078    -0.00260170    -0.06754625
Ti      9.63450954    10.49038301     3.43957709     0.00127784     0.01956636    -0.04187454
Ti      9.66170275     4.99802182     3.38958358    -0.02240023    -0.02571824    -0.00300176
Ti      4.43245164    10.46898962     3.45340816     0.00595879    -0.03199096    -0.02355029
Ti      4.73491254     4.92201547     3.63336462     0.09635907    -0.06536338     0.04103456
O       6.82078479     7.44682444     4.74045823    -0.02758486    -0.00280533    -0.00027228
O       6.82816141     1.92886787     4.72586633     0.01880351    -0.00966529    -0.00364917
O       1.63771005     7.45281290     4.74216272    -0.00191470    -0.03145566    -0.03119315
O       1.60292955     1.88180667     4.72423086    -0.01616890    -0.01951545    -0.01275139
O       8.71835529     9.08221281     4.54137269     0.00999337    -0.01286812     0.00277654
O       8.75154662     3.56526685     4.53659930     0.00592434    -0.01713024    -0.01049910
O       3.52837236     9.08328475     4.54150066    -0.00893587    -0.02048064    -0.01650212
O       3.46007024     3.63861987     4.37141709    -0.03207427     0.04920965    -0.00178820
O       6.10528019     7.41720033     0.11756251    -0.02567196     0.01582617     0.00254256
O       6.12355489     1.91872646     0.08871180     0.01994200     0.01262849     0.03092061
O       0.89188809     7.48068751    -0.02582568     0.08860590    -0.10103822     0.09149505
O       0.95176722     1.91858033     0.08487182    -0.00303879     0.04660280    -0.01964786
O       9.38238143     9.11132325     9.16190732    -0.03486880    -0.00860266     0.01381866
O       9.41452475     3.56869687     9.16486252     0.00704894     0.02821015    -0.01827541
O       4.20464650     9.06129247     9.18949887    -0.02220174     0.03234603     0.02398300
O       4.23641766     3.57513520     9.18161155     0.03530769     0.00883046     0.02888713
O       8.70381778     6.32948467     0.10270009    -0.01584597     0.02088096    -0.00908063
O       8.69572355     0.82316536     0.09155083     0.03208404    -0.01212018    -0.00019489
O       3.53448863     6.32062962     0.08720753    -0.02259641    -0.01357466     0.05140151
O       3.53690909     0.81460967     0.11527703     0.01003116     0.01503967    -0.00410014
O       6.79474771    10.18665327     9.18934897     0.01589894    -0.02916661    -0.00236259
O       6.82683942     4.66688296     9.17578667    -0.02211869    -0.00059058     0.03102551
O       1.62275956    10.20255774     9.16811903    -0.00956991     0.04259831    -0.04199590
O       1.66154514     4.67507225     9.20960917     0.01052636    -0.01269354     0.00799511
O       9.41440508     6.31161288     4.72088287     0.00853529    -0.00812417    -0.02605634
O       9.40242941     0.81294485     4.73278733     0.03340841    -0.02211381     0.02295739
O       4.23713367     6.32929053     4.74824761     0.02707913    -0.00574282     0.00166788
O       4.21007095     0.83949525     4.70786084     0.05020492     0.02170809    -0.00589863
O       6.11294307    10.19834001     4.54649491    -0.00420144     0.01741615     0.00952414
O       6.21023352     4.69406648     4.60872235    -0.09305957    -0.02400126    -0.01484633
O       0.94483841    10.18121344     4.54173995    -0.01481290    -0.05686460     0.03172563
O       1.03685198     4.74029500     4.43288847    -0.10004937    -0.06025280     0.01677671
O       5.34962913     8.84018216     2.51374777    -0.01373124    -0.00024631    -0.01375464
O       5.42210533     3.35137443     2.51750377     0.01072356    -0.02469417     0.02028755
O       0.19066922     8.86320145     2.47628263    -0.00067491     0.00729345     0.03183747
O       0.17066237     3.37078794     2.47408873    -0.00928451     0.00918861    -0.02642041
O      10.17197808     7.66819895     6.73716699    -0.00998128    -0.01314426    -0.02333020
O      10.17710452     2.14055121     6.76824633    -0.01982784    -0.00490412     0.01323527
O       4.97821645     7.65579861     6.79004384    -0.00267112     0.02789854     0.03118878
O       4.96834344     2.17129254     6.74370870     0.03946311     0.03917360    -0.00037512
O       7.92891097     7.67083673     2.13656200    -0.02069585    -0.02813174     0.01013169
O       7.96856806     2.12275816     2.13900450     0.03981766    -0.03348426    -0.02275787
O       2.74747997     7.52254252     2.15871154    -0.02446663     0.00610689     0.01310389
O       2.78221165     2.26949353     2.11783461    -0.03988965    -0.03999841    -0.00555744
O       7.55029760     8.85028445     7.13640793    -0.00989772     0.00660362     0.00724100
O       7.58427825     3.34972029     7.13044093     0.00751328     0.03314667     0.01726805
O       2.38128501     8.88732212     7.12015310     0.01071816     0.02577609    -0.03436872
O       2.40167904     3.35681471     7.10543067     0.05189697     0.03644386     0.01176640
O       5.33152502     6.04824942     2.14784894     0.00881683     0.01340497     0.03466980
O       5.36084096     0.59236238     2.14213726    -0.00337817    -0.00083947     0.00083252
O       0.20411542     6.14245975     2.08996303     0.05793160     0.00258113    -0.01710298
O       0.20820310     0.61517023     2.15060936    -0.01438713     0.00538158    -0.00468301
O      10.12524618    10.41896101     7.11731055     0.00312569     0.00117731    -0.00683091
O      10.18012996     4.89116511     7.11424909     0.00112049     0.02942834     0.00644216
O       4.98434241    10.41764566     7.14208062    -0.01005199     0.00140614    -0.00134469
O       4.99880937     4.89786975     7.13692928    -0.03011483     0.02835054     0.05373273
O       7.58301254     6.10652973     6.79341090     0.02152760     0.02887787     0.00202037
O       7.55577271     0.60107431     6.77181703     0.00673681     0.00379109     0.00054353
O       2.39530243     6.10474612     6.77423459    -0.00434517     0.02056318    -0.00625730
O       2.41261907     0.62638601     6.74415761     0.00706257     0.03774149     0.05252406
O       7.95163857    10.40851515     2.50670533    -0.00400887     0.01913699    -0.01758275
O       7.97244619     4.90908759     2.49719374     0.00581044    -0.00983884     0.00120559
O       2.77265390    10.39283294     2.48456185     0.01265960     0.02018780     0.00847847
