# total energy = -19900.13340150 eV

CRYSTAL
PRIMVEC
        8.41059769     0.00000000     0.00000000
        0.00002960     4.81999511     0.00000000
        0.00000000     0.00000000    12.72453133
PRIMCOORD
24 1
Ti      3.04845478     2.85632479     4.72071054     0.45410918    -0.51381356     2.57637154
Ti      5.36217270     1.96367072     8.00382132    -0.45410918     0.51381356    -2.57637154
Ti      7.25360949     1.96367242     1.64150459     0.45371837     0.51397451    -2.57730793
Ti      1.15701799     2.85632322    11.08302740    -0.45371837    -0.51397451     2.57730793
Ti      3.04844012     0.44632730     1.64155559     0.45425908    -0.51192534    -2.57637102
Ti      5.36218737     4.37366833    11.08297640    -0.45425908     0.51192534     2.57637102
Ti      1.15700333     0.44632540     8.00377032    -0.45372634    -0.51204078    -2.57722103
Ti      7.25362415     4.37367017     4.72076154     0.45372634     0.51204078     2.57722103
O       2.66201778     1.69720229     6.49323115     0.78341260     1.41787676    -2.20409931
O       5.74860971     3.12279314     6.23130071    -0.78341260    -1.41787676     2.20409931
O       1.54335122     1.69722171     0.13100616    -0.78275568     1.41777726    -2.20416899
O       6.86727632     3.12277379    12.59352530     0.78275568    -1.41777726     2.20416899
O       5.74859504     0.71279559     0.13096489    -0.78316088    -1.41778960    -2.20391959
O       2.66203244     4.10719991    12.59356657     0.78316088     1.41778960     2.20391959
O       6.86726166     0.71277617     6.49327242     0.78247491    -1.41783151    -2.20433534
O       1.54336569     4.10721933     6.23125937    -0.78247491     1.41783151     2.20433534
O       0.30559445     2.93179429     3.43721348    -2.31693762     0.75515925     0.18319785
O       8.10503303     1.88820121     9.28731838     2.31693762    -0.75515925    -0.18319785
O       4.51090368     1.88815614     2.92509287    -2.31816481    -0.75511502    -0.18297082
O       3.89972380     2.93183936     9.79943873     2.31816481     0.75511502     0.18297082
O       0.30557979     0.52179667     2.92505225    -2.31734899     0.75528472    -0.18305850
O       8.10504769     4.29819883     9.79947934     2.31734899    -0.75528472     0.18305850
O       3.89970914     0.52184174     9.28735893     2.31845971     0.75519319    -0.18366528
O       4.51091834     4.29815376     3.43717286    -2.31845971    -0.75519319     0.18366528
