# total energy = -19959.77070755 eV

CRYSTAL
PRIMVEC
        7.60600008     0.00000000     0.00000000
        0.00000000     7.60600008     0.00000000
       -1.89786986    -1.89786986     4.85670466
PRIMCOORD
24 1
Ti      3.77431498     6.51893502     1.20574000     0.20769096    -0.31196235     1.29969339
Ti      3.74964098     2.79908301     1.17633102    -0.31183096     0.31336206    -0.47150347
Ti      0.07473401     6.66332500     1.23210599    -0.71206523     1.42267984     0.15324449
Ti     -0.00314898     3.01595101     1.22529701     1.01630783    -1.41340921    -0.69096880
Ti      5.84509023     2.90137223     3.60529080    -0.55633705    -0.29314649    -0.66228171
Ti      5.73433222    -0.93367277     3.65931683    -0.59444004     0.19797450    -0.10387903
Ti      1.91018424     2.88560624     3.61550180     0.79039880    -2.89435592     0.88055457
Ti      1.83863720    -1.07228578     3.72802383     0.31750719     1.23488537    -0.30644784
O       3.69908699     4.63969399     0.75300700     0.82671436     1.32748779     0.60176383
O       3.58845798     0.81998200     0.84874099     0.68095924     0.46773500    -0.33775798
O      -0.02999498     4.87359399     0.76345000     0.00016892    -1.72698698    -0.61902828
O      -0.13695102     1.00442700     0.76456101     0.65694307    -0.25318176    -0.05836509
O       5.90695322     4.72204524     3.99575979    -0.39084896     0.76865009     0.57258540
O       5.96926824     0.95081621     3.88614183    -1.12605901     1.04122235     1.33897523
O       1.61986623     4.58248623     4.03764681     0.58864066     3.44216102     1.62919118
O       1.78148320     0.90276522     4.03802279     0.42857940    -0.95024229     0.21372174
O       3.69434720     2.94568321     3.01811582     3.64661188    -0.73976836     2.66387778
O       3.67722821    -1.08441976     3.28637281     1.23714151    -0.01149052    -0.09453358
O       0.06523724     2.87519320     3.17951780    -1.62189387    -0.42926409    -0.44479767
O      -0.03015480    -0.92950577     3.21161483     0.58939065    -0.35817871    -0.19391242
O       5.70406899     6.54923999     1.68603899    -1.21190072     0.23174930    -0.64412792
O       5.83277898     2.99912101     1.59270599    -1.82538982    -0.21955686     0.16124114
O       1.89749500     6.56779999     1.72668902    -0.61816645    -0.07392181    -0.72107592
O       1.94261201     3.19808499     1.81808401    -2.01812313    -0.77244221    -4.16616929
