# total energy = -4977.53284527 eV

CRYSTAL
PRIMVEC
        4.53922366     0.00000000     0.00000000
        0.00000000     2.37076111     0.00000000
        0.00000000    -0.00012504     6.32202873
PRIMCOORD
6 1
Ti      2.26961161     1.18531798     3.16101437     0.00000000     0.00000000     0.00000000
Ti      0.00000000     0.00000000     0.00000000     0.00000000     0.00000000     0.00000000
O       2.26961161     0.46200205     1.23207030     0.00000000    -0.22916997     1.71239674
O       2.26961161     1.90863397     5.08995849     0.00000000     0.22916997    -1.71239674
O       0.00000000     0.72326682     4.39308595     0.00000000     0.22913783     1.71306008
O       0.00000000     1.64736920     1.92894278     0.00000000    -0.22913783    -1.71306008
