# total energy = -19517.55175185 eV

CRYSTAL
PRIMVEC
        5.93400000     0.00000000     0.00000000
        0.00000000     9.29699974     0.00000000
        0.00000000     0.00000000     4.64899994
PRIMCOORD
23 1
Ti      4.47696299     6.98540201     2.36993503     0.58413043    -0.17521200    -0.00968689
Ti      4.40267799     2.37286900     2.27572301     0.92410161     0.31080406     0.01292700
Ti      1.43227601     7.00402498     2.25586399    -0.34495527     0.09126031     0.31951625
Ti      1.46717700     2.28967201     2.35252499    -0.93137192     0.85223180    -0.35205100
Ti      2.93450698     4.61295699     0.07473401     0.80026850    -0.13965800     0.58476961
Ti      2.95555400     0.09424001     0.10265801     1.08500157    -0.66864982    -0.43907491
Ti      0.02069602     4.63413901     4.61921801    -0.94932466     0.07552927     0.15172085
Ti      0.06385799     0.03646301     4.51019802    -1.02489404    -0.48216327    -0.59964576
O       4.56817002     5.50045799     0.98624399    -1.20443501     0.20608839    -0.49050033
O       4.50114099     1.01052598     0.86486798    -0.77416691    -0.65665228    -0.32053698
O       1.50630601     5.61242401     0.94763199     0.47954383    -0.63109987    -0.94048623
O       1.40773600     0.93224098     0.81486798     0.87619886     0.12378709     0.94237316
O       4.52251298     8.35389301     3.87083898    -1.10967105    -0.58858307    -0.89993375
O       4.45581802     3.73716801     3.63113502    -0.26086885     0.51547449     0.77279779
O       1.50573402     8.19635001     3.87135403     0.14982749     0.91725888    -0.42605586
O       1.50913398     3.68268202     3.79333102     0.44854145     0.54674915    -0.37855831
O       2.82016199     1.42363402     3.28771100     1.51321279    -0.63668560    -0.28356065
O       0.01275502     6.00905501     3.22257399     0.15655736    -0.33231341     0.60437865
O       5.89195602     1.31460599     3.05700199     0.35529188    -0.27507960     1.07601196
O       2.98194698     7.81275900     1.40449199     0.13348530     0.06043792     1.19567423
O       2.96882497     3.38126101     1.41903499    -0.27292733    -1.47587753     0.55256524
O       5.87621199     7.71024499     1.49283601     0.26539297     2.20541803    -1.12480791
O       0.10816902     3.21880302     1.37705600    -0.89893899     0.15693480     0.05216385
