# total energy = -4989.55219349 eV

CRYSTAL
PRIMVEC
        3.31244619     0.00000000     0.00000000
        0.00000000     4.24645088     0.00000000
        0.00000000    -0.00006236     4.76593821
PRIMCOORD
6 1
Ti      1.65622309     2.12319421     2.38296921     0.00000000     0.00000000     0.00000000
Ti      0.00000000     0.00000000     0.00000000     0.00000000     0.00000000     0.00000000
O       1.65622309     0.82755857     0.92881122     0.00000000     0.07483533    -0.02251953
O       1.65622309     3.41882985     3.83712721     0.00000000    -0.07483533     0.02251953
O       0.00000000     1.29561041     3.31178129     0.00000000    -0.07549533    -0.02231513
O       0.00000000     2.95077800     1.45415714     0.00000000     0.07549533     0.02231513
