# total energy = -19517.36847058 eV

CRYSTAL
PRIMVEC
        7.60600008     0.00000000     0.00000000
        0.00000000     7.60600008     0.00000000
       -1.89786986    -1.89786986     4.85670466
PRIMCOORD
23 1
Ti      3.70136203     6.72754902     1.24850699     1.72166737    -0.48206531    -1.42818200
Ti      3.70151999     2.98398802     1.14444698     1.69808211    -0.25766088    -0.18467675
Ti      0.00421400     6.47941998     1.30521600    -0.52364263    -0.31078787     0.12420927
Ti      0.13211699     2.78535499     1.04353002    -0.59751637     0.36285967     0.85915655
Ti      5.60409223     2.85581325     3.53354780    -0.14917983     0.35077471     1.29309568
Ti      5.57406824    -1.05988377     3.63990581     1.44800136    -0.05403047     0.06891716
Ti      2.00784724     2.96907221     3.66207982    -1.03298093     0.67165801     1.03934390
Ti      1.92211523    -0.81073876     3.64505079    -0.95775762    -0.88568443    -0.18303459
O       3.60922899     4.78844799     0.88605899     0.63290839    -0.50406136    -1.11666368
O       3.76012801     1.00665801     0.62595202     0.29145085     0.28548743     2.43565938
O       0.25260599     4.67447798     0.77978099    -0.27497290     0.67415687    -0.11996258
O      -0.12684500     0.90098899     0.79917999     0.32016288     0.60867008     0.76405784
O       5.63112323     4.75482322     4.25917882     0.15504683    -1.23854379    -1.96282382
O       5.90999621     0.97962324     4.02619282    -0.08754610    -0.89388137    -1.25762910
O       1.96280224     4.80203324     4.03899383    -0.12893907    -0.90256399     0.55696286
O       1.87357624     1.06224221     3.92077183    -0.70780619    -0.29605184     1.26628138
O       3.75581923     2.66149222     3.43313584     2.57188239     0.36619927    -1.24237705
O       3.77095222    -0.97225879     3.34706283     0.66385394     0.77311250    -0.96610934
O       0.14622120    -1.10583175     3.25678879    -2.02420122     0.45011703    -0.56347186
O       5.63022702     6.21944599     1.69891298     0.70704412     1.29533897     0.43987760
O       5.85004000     3.21729200     1.72982799    -0.02313377    -1.12946881     0.05959151
O       1.98155702     6.43526897     1.54058399    -1.36517350     1.57868955     0.73546253
O       2.00485501     2.88806099     1.72382902    -2.33724985    -0.46226369    -0.61768462
