# total energy = -19956.79511757 eV

CRYSTAL
PRIMVEC
        5.92106065     0.00000000     0.00000000
        0.00002753     5.15601762     0.00000000
        0.00000000     0.00000000     9.73131025
PRIMCOORD
24 1
Ti      2.14611600     3.05545116     3.61024682     0.07624918     0.14847663    -0.40295115
Ti      3.77497223     2.10056624     6.12106381    -0.07624918    -0.14847663     0.40295115
Ti      5.10654374     2.10056791     1.25536962     0.07770854    -0.14857357     0.40314115
Ti      0.81454450     3.05544966     8.47594113    -0.07770854     0.14857357    -0.40314115
Ti      2.14610246     0.47744246     1.25540864     0.07624661     0.14008609     0.40161726
Ti      3.77498578     4.67857511     8.47590211    -0.07624661    -0.14008609    -0.40161726
Ti      0.81453095     0.47744058     6.12102479    -0.07809189     0.13999071     0.40342706
Ti      5.10655728     4.67857694     3.61028584     0.07809189    -0.13999071    -0.40342706
O       1.87406279     1.81552138     4.96581328     0.75550146     0.26854180     0.12411979
O       4.04702544     3.34049602     4.76549735    -0.75550146    -0.26854180    -0.12411979
O       1.08652152     1.81554221     0.10018931    -0.75591747     0.26844564     0.12422007
O       4.83456676     3.34047524     9.63112105     0.75591747    -0.26844564    -0.12422007
O       4.04701190     0.76248716     0.10015772    -0.75590410    -0.26886473     0.12411311
O       1.87407634     4.39353024     9.63115264     0.75590410     0.26886473    -0.12411311
O       4.83455316     0.76246638     4.96584487     0.75564981    -0.26857831     0.12384957
O       1.08653496     4.39355108     4.76546576    -0.75564981     0.26857831    -0.12384957
O       0.21514247     3.13618222     2.62866977    -0.10853248    -0.11912542     0.25348670
O       5.70594576     2.01983518     7.10264086     0.10853248     0.11912542    -0.25348670
O       3.17567872     2.01978726     2.23701650    -0.10902047     0.11932263    -0.25402611
O       2.74540952     3.13623014     7.49429396     0.10902047    -0.11932263     0.25402611
O       0.21512887     0.55817335     2.23698541    -0.10962674    -0.11938228    -0.25421509
O       5.70595936     4.59784405     7.49432506     0.10962674     0.11938228     0.25421509
O       2.74539591     0.55822127     7.10267190     0.10868957    -0.11954863    -0.25330955
O       3.17569232     4.59779613     2.62863867    -0.10868957     0.11954863     0.25330955
