# total energy = -19518.85227794 eV

CRYSTAL
PRIMVEC
        7.60600008     0.00000000     0.00000000
        0.00000000     7.60600008     0.00000000
       -1.89786986    -1.89786986     4.85670466
PRIMCOORD
23 1
Ti      3.81796401     6.57304900     1.20177302    -0.51281751     0.59760559     0.67788008
Ti      3.77824100     2.84648898     1.22256900     0.15199339     0.08438029     0.95286301
Ti     -0.00366402     6.68737801     1.24352600     0.36976282     0.26237475    -0.42754453
Ti     -0.03204697     2.91193800     1.18462799     0.18773791    -0.72067123    -1.03498639
Ti      5.69705322     2.87426121     3.67377379    -0.59073328    -0.15170028    -0.69419657
Ti      5.74786524    -0.93868080     3.62386883    -1.68311289    -0.09240240     0.74609559
Ti      1.93524920     2.85861222     3.64370779     0.89404823    -0.26782215    -0.81031329
Ti      1.89562425    -0.98744978     3.71698979     0.84014015     0.09245999    -1.78745421
O       3.69712300     4.78063702     0.71273698     0.05285290    -1.15912753     1.07393605
O       3.75028002     0.92016103     0.66934202     0.21610490     0.22804074     2.01736439
O       0.02012302     4.77882602     0.79163699     0.18821742     0.26056880    -0.22348757
O      -0.03064799     0.98272697     0.86345598     0.18292197    -1.44980859    -0.71073931
O       5.72436723     4.68001222     3.90294681     0.51595812     0.95119488     1.29228655
O       5.73165321     0.90296822     3.97526279     0.31914935     0.96332638     0.28741010
O       1.87581921     4.69655822     4.02384682    -0.28813901     0.50195254    -0.30084335
O       1.84155821     0.94893022     4.16290682    -0.16866983     0.28419237    -1.48403024
O       3.85022123     2.97186023     3.25579383    -1.16540333    -0.78922252    -0.84838748
O       3.84432423    -0.99721775     3.27331282    -1.11505932    -0.02676468    -0.51078480
O      -0.09352779    -1.11003379     3.25118380     2.63939135     0.49380497    -1.04449742
O       5.68655302     6.63304701     1.55503201     0.55849292     0.13148549     0.29457500
O       5.78424300     2.85520702     1.57552001    -1.44494611     0.05120045     0.80211506
O       1.97851399     6.70430602     1.57548201    -1.60037142    -0.01780181     0.75843303
O       1.78637000     2.87885802     1.61448100     1.45248099    -0.22726606     0.97430576
