# total energy = -4987.09446359 eV

CRYSTAL
PRIMVEC
        3.74560113     0.00000000     0.00000000
        0.00000000     3.52127700     0.00000000
        0.00000000    -0.00006935     5.00803834
PRIMCOORD
6 1
Ti      1.87280041     1.76060393     2.50401928     0.00000000     0.00000000     0.00000000
Ti      0.00000000     0.00000000     0.00000000     0.00000000     0.00000000     0.00000000
O       1.87280041     0.68623155     0.97599297     0.00000000    -0.41713825     0.29585644
O       1.87280041     2.83497631     4.03204564     0.00000000     0.41713825    -0.29585644
O       0.00000000     1.07434469     3.48001322     0.00000000     0.41663431     0.29685660
O       0.00000000     2.44686318     1.52802534     0.00000000    -0.41663431    -0.29685660
