# total energy = -19073.71638045 eV

CRYSTAL
PRIMVEC
        5.93400000     0.00000000     0.00000000
        0.00000000     9.29699974     0.00000000
        0.00000000     0.00000000     4.64899994
PRIMCOORD
22 1
Ti      4.48522101     6.96568799     2.43014000    -1.66849385    -0.80581848     0.00786912
Ti      4.40958502     2.48278001     2.07836498     1.41624539    -1.11115484     0.05061681
Ti      1.49446201     7.14905098     2.52503201     1.19502065     0.21590101     0.60939384
Ti      1.59209601     2.24184503     2.23847999    -0.96170890     0.57542081     0.07006259
Ti      2.98824499     4.47523301     4.40827901    -1.64607613     1.55019298     0.97603252
Ti      2.98271403     9.29173702     0.02689602     1.31770989     0.28829379     0.54161388
Ti      5.78472799     4.63646098     4.49235798     0.25910456    -0.11004917     0.48606338
Ti      0.02475301     9.15241598     0.24898202    -1.78978568     0.46166128     0.88760273
O       4.45349800     5.55452901     0.83421200    -0.33015214    -0.38955647     1.05783322
O       4.41649301     0.72505401     1.13694600     0.79508875     1.58714437    -0.70411974
O       1.54399999     0.63224299     1.19865399    -0.85021939     1.33649231    -0.18178220
O       4.42862302     8.30895798     3.96495903     0.17079845     0.69674633    -0.82792844
O       4.35405602     3.90957301     3.47938498     1.92489592    -1.34843047    -1.76206430
O       1.43174202     8.52764101     3.82754101     0.25224563    -0.02247376    -1.12674087
O       1.44402999     3.90222099     3.45055498     0.08561571    -0.11587863     0.71085038
O       2.89060300     6.16112103     3.44243099    -0.55593853    -0.22613735    -0.67372467
O       3.03662798     1.60671702     3.16925800     0.25699651    -1.03411556     2.03064672
O       0.04273900     6.36806002     3.49889802     0.46766841    -2.07592643     0.07868787
O       3.03541601     7.94729200     1.67576698    -0.55981241    -0.54014835    -1.02126621
O       2.95656399     3.01238700     1.10985101    -0.82978349     1.43634937    -1.03108500
O       5.87170002     7.78301501     1.48321599     1.17920836    -0.15392223    -0.20672011
O       0.05895998     3.23510199     1.19995000    -0.12862823    -0.21459078     0.02815848
