# total energy = -4979.66398195 eV

CRYSTAL
PRIMVEC
        3.91470915     0.00000000     0.00000000
        0.00000000     2.32659968     0.00000000
        0.00000000    -0.00009288     5.30430247
PRIMCOORD
6 1
Ti      1.95735458     1.16325326     2.65215099     0.00000000     0.00000000     0.00000000
Ti      0.00000000     0.00000000     0.00000000     0.00000000     0.00000000     0.00000000
O       1.95735458     0.45340186     1.03373034     0.00000000    -1.65671022    -1.62811157
O       1.95735458     1.87310466     4.27057164     0.00000000     1.65671022     1.62811157
O       0.00000000     0.70981466     3.68588251    -0.00000000     1.65648731    -1.62731402
O       0.00000000     1.61669186     1.61841948    -0.00000000    -1.65648731     1.62731402
