# total energy = -19071.82893339 eV

CRYSTAL
PRIMVEC
        5.17600016     0.00000000     0.00000000
        0.00000000     5.50899976     0.00000000
        0.00000000     0.00000000     9.26300011
PRIMCOORD
22 1
Ti      1.49611400     3.07321598     3.69538698     0.64640000    -1.16460732    -0.46588432
Ti      4.28045900     3.31067602     5.93820500    -0.81219405    -0.69977561    -1.77733588
Ti      4.15830600     2.26551698     1.38141398     1.19995486    -1.68270408     1.49889533
Ti      1.48599401     2.92336198     7.98471002    -1.59657698    -0.45864461     0.90668573
Ti      1.62458897     0.42218200     1.40646301    -0.48928728     0.46447099     0.49125881
Ti      3.30272402     5.21465201     8.06182897    -0.53688099     0.12707271     0.98656402
Ti      1.33823899     0.27127002     5.67220300     2.70305935     1.08851241    -0.85634736
Ti      4.00094101     4.93495998     3.31033301    -1.36665677    -0.11366543     0.41863514
O       3.27187701     3.19205602     4.26081901    -0.59820877    -0.36804044     2.69228668
O       0.56598698     2.03755102     0.16241498    -0.33928444    -0.73063966     0.67784486
O       4.88834798     3.71223302     7.65876699     0.16096912     0.79197540     0.81972044
O       3.35902297     0.68700701     0.58437298     0.67975930    -0.07841585    -1.34319621
O       1.92707801     4.43873099     9.11663598    -0.01867470    -0.60697726    -0.07891516
O       3.00598401     0.21567698     4.56891500    -1.75084991     0.92533214     2.19932400
O       0.36867499     4.33564700     4.92607202    -0.05499180     1.34312139    -0.27824026
O       5.00799702     3.40347201     2.68957999     0.00499437    -0.24054839    -2.07145014
O       0.45143799     1.88536101     5.46537301     0.08407896    -0.35447890    -0.03702056
O       2.36322802     1.85704500     2.40680101    -0.55650854    -0.44506095    -0.82675833
O       2.50478003     4.03319902     6.73034699     0.30368313    -0.54925392    -0.75547009
O       4.98727502     0.85697102     2.68669799     1.14820239    -0.32931910    -1.56364345
O       2.15332002     1.03826000     7.29252897     0.53513418     0.81407867     0.39126137
O       2.15634702     4.38206500     2.51034898     0.65387908     2.26756779    -1.02821487
