# total energy = -39033.52046468 eV

CRYSTAL
PRIMVEC
        5.93200024     0.00000000     0.00000000
        0.00000000     9.29399984     0.00000000
        0.00000000     0.00000000     9.29399984
PRIMCOORD
46 1
Ti      4.51621000     7.09076501     6.84118502    -2.59328760     0.76293478    -0.24300045
Ti      4.46712199     6.74301899     2.44370101     0.32574192     0.55282698    -0.78390470
Ti      4.41942999     2.15609799     7.22641801     0.81498961    -0.71709714    -0.92668583
Ti      4.22012703     2.68035903     1.97512599     0.26272879    -1.04685898     1.50047965
Ti      1.44173500     6.90366498     7.23103599     2.10150120    -0.70695516    -1.14972268
Ti      1.51176701     7.17164600     2.14646501    -1.08909991    -0.97289757     1.27142718
Ti      1.48314101     2.43180003     6.70111201    -1.06333101    -0.70961959     0.51711074
Ti      1.34435999     2.07211899     2.71173998     0.56101672    -0.23172384    -0.46315510
Ti      2.91619899     4.71547397     4.56239300     0.52130807    -0.06959799     1.54916993
Ti      2.96152101     4.63164298     9.03759198     0.45201502     1.24845180    -0.57668143
Ti      3.04334800     9.20937498     4.60699899     0.12211639    -0.20453545     0.22176107
Ti      2.97103699     0.01853502     0.13591299     0.65518598     0.68977041    -2.01443925
Ti      5.91259002     4.64884400     4.60891599    -0.62228819    -0.37688427     1.29236857
Ti      0.09524301     4.80054297     9.14161298    -0.77831744    -0.12682768     0.67062494
Ti      0.01845903     9.12249302     4.88305901     0.18048122     0.67297493    -0.08762786
Ti      0.03227701     9.26615702     0.10849901    -0.72811046     1.84158546    -2.29059897
O       4.42224501     5.69078199     5.47915702     0.83167788    -0.90037726    -0.15240117
O       4.43853398     5.32175198     0.93924099    -0.59413460     0.80246088     1.31574016
O       4.52583500     0.56126000     5.93084298    -0.27874960     0.64239962    -2.40923280
O       4.36302499     1.11995100     0.72152598     0.80958901     0.43648118     0.51964765
O       1.57843800     5.50546401     5.68227298    -0.94918350    -0.46140315    -1.01409360
O       1.49661598     5.63328101     0.80375902     0.60048959    -0.22751752     0.26298950
O       1.63815798     1.06673900     5.15472401    -1.74493380     0.40149771     0.64168357
O       1.47592901     0.99513301     1.04720299    -0.63560882    -0.67515549    -0.43500073
O       4.40962799     8.43237698     8.40238798    -0.16741770     0.32238663     0.43743763
O       4.63950502     8.29263900     3.81353300    -0.22651504     0.52664723    -0.38999818
O       4.58022701     3.75639201     8.43241101    -1.23830159    -1.65952764    -0.00606395
O       4.38398703     3.74690302     3.64859602     0.12456305     0.63638812     0.28997606
O       1.45928702     8.27461199     8.43451899     0.24082350     1.03850212     1.20755967
O       1.48900202     8.33357298     3.80081099    -0.12161682     0.04107622    -1.10623606
O       1.38021698     4.10900298     7.88830001     0.70501372    -0.95307719     2.27106012
O       1.52715501     3.59089299     3.93060701    -0.71840686     0.32696885    -0.39862835
O       3.08689601     6.15717998     7.96419799     0.19215892    -0.28150993    -0.29627167
O       2.90839701     6.12016202     3.25222098    -0.27145332    -0.11464887    -0.72103324
O       2.83658803     1.32670002     7.84039999    -0.32718765     0.87341564     0.28936106
O       3.13214902     1.41238800     3.09665499     0.77719901     0.55592130    -0.41085730
O       5.72649299     6.22881798     7.97089500     1.04765011    -0.95180166     0.59784187
O       0.06052899     6.03029301     3.14716199     0.23873242    -0.38000842     0.31305918
O       0.16174700     1.22717998     7.69555000    -0.13539486     1.24759922     0.88769452
O       2.97864000     7.82622000     5.96819602    -0.79242971     0.16283008     0.62315490
O       2.94053601     8.10084199     1.58634602     1.22448036    -0.86473842    -0.21788513
O       3.06819398     3.11323401     6.13168099     0.63705378     0.60933882    -0.56170860
O       0.20945598     7.79287898     6.09571900    -0.12729459    -0.09880676     0.07624609
O       5.82526000     7.96221400     1.32840402     0.17523026    -1.77847771     1.83631161
O       5.70719998     3.20411501     6.08886902     1.14771645     0.01796636    -0.99175610
O       0.06339501     3.09293699     1.76998201     0.45359959     0.09962360    -0.94572331
