# total energy = -19959.06826264 eV

CRYSTAL
PRIMVEC
        7.60600008     0.00000000     0.00000000
        0.00000000     7.60600008     0.00000000
       -1.89786986    -1.89786986     4.85670466
PRIMCOORD
24 1
Ti      3.76739800     6.47553502     1.15924701    -0.64146785     1.30622476     0.56780520
Ti      3.71104602     2.71438697     1.32249100     1.72682243    -0.49728805    -0.43023956
Ti      0.01622600     6.87560599     1.22794300     0.48587671    -0.83601790    -1.46593867
Ti      0.04568001     2.93177198     1.19908501    -2.61356693     1.09989391    -0.67715246
Ti      5.64795223     2.85393324     3.62596681    -0.20284520     3.19451999     0.09550443
Ti      5.87702222    -0.80985477     3.52590781    -0.58936725    -1.20875832     0.47358041
Ti      1.72592023     2.51745721     3.57108081    -0.28823928     1.32755284     2.17677825
Ti      2.03061721    -1.01106378     3.73305181     0.27976852    -0.96288903    -1.39100744
O       3.87516299     4.64107499     0.71395499    -0.34881552    -0.41156692     0.55138742
O       3.82038198     0.79478401     0.80461798     0.20768839     2.83511974     0.70306996
O       0.03779802     4.97212399     1.05024899    -0.47713779    -1.74050122    -1.27587545
O       7.37851202     1.17096702     0.53489400     0.78383066    -0.14533012     1.68111745
O       5.87794621     4.92454021     4.06502983    -0.19262378    -0.64807765    -0.59037950
O       5.84056524     1.18449025     4.02050179    -0.92077332    -2.64471457     1.64100823
O       1.71598524     4.82651224     4.04940280     0.36185642    -2.15033033    -0.38726947
O       1.76627920     0.80185821     4.18103681     0.43285823     1.31198789     0.15511240
O       3.70084121     2.68864721     3.25072283     0.36477617     0.34864609    -0.60690527
O       3.85989422    -0.82742075     3.22264580    -1.08768348    -0.61181942    -0.50498156
O      -0.13385179     2.56868220     3.31234383     3.49912332     1.34483272    -0.69691885
O       0.13999220    -0.61452179     3.16452880    -1.26248308    -0.51061999     0.03448828
O       5.69089301     6.87099098     1.63964200     0.35860166    -0.62912012    -0.53100473
O       5.81738500     2.80801700     1.67971803    -2.64906873     0.67417101     0.17358167
O       1.89877799     6.77617099     1.47785400     1.34375697    -0.34883764     0.82456800
O       1.80616202     2.71984898     1.68716201     1.42911223    -0.09707769    -0.52032900
