# total energy = -4984.74473954 eV

CRYSTAL
PRIMVEC
        3.62617889     0.00000000     0.00000000
        1.70643084     3.19957296     0.00000000
       -2.66633893    -1.59980692     4.78894751
PRIMCOORD
6 1
Ti      1.27973757     2.39980294     1.19723656     0.00053350    -0.00053350     0.00000000
Ti      1.38653309    -0.80003702     3.59171036    -0.00053350     0.00053350     0.00000000
O       0.42664529     0.79988917     0.78008032     0.00060138     0.00055742    -3.13375246
O       2.23962522     0.79987674     4.00886665    -0.00060138    -0.00055742     3.13375246
O      -0.42661082    -0.79986845     3.17455407     0.00055742     0.00060138    -3.13375246
O       3.09288126     2.39963427     1.61439285    -0.00055742    -0.00060138     3.13375246
