# total energy = -39019.83913637 eV

CRYSTAL
PRIMVEC
        5.93200024     0.00000000     0.00000000
        0.00000000     9.29399984     0.00000000
        0.00000000     0.00000000     9.29399984
PRIMCOORD
46 1
Ti      4.68423003     7.05790200     6.85760100    -2.82809086    -0.07042820     2.32305685
Ti      4.22507901     6.62766602     2.08240000    -2.40931405     1.55877969     2.39248900
Ti      4.49408500     2.82849802     6.71600798    -1.40893137    -0.47494669     1.20318931
Ti      4.53385902     2.49674198     3.68628201    -0.03915226    -0.12583986     1.37629352
Ti      1.62669399     7.31962899     6.55413700     0.48533755     0.36982633     4.19085754
Ti      1.16752001     6.90844202     2.11063500     2.57889636    -0.22299006     0.82096151
Ti      1.41119502     2.07370800     7.92406498    -0.60875904     0.25640130     1.21846784
Ti      1.57667298     2.36993402     3.97217600     1.51331846    -0.04875071     0.28900676
Ti      3.04608401     5.20314600     4.87547902    -1.71215402    -1.43386363     0.08561700
Ti      2.86518699     4.56882398     8.95324599     4.12330692     3.50157795    -2.98596950
Ti      2.94861400     8.83714699     3.84762498     2.04756792     1.21708150     1.36621299
Ti      2.98718499     0.20624302     0.05434100     1.29454938    -3.03213599    -1.75040434
Ti      5.88900099     4.75408899     4.68789701     2.06664089     0.75997775    -1.35501841
Ti      5.88232801     5.17226798     0.03250101     1.72234742    -0.12509064    -2.46060937
Ti      0.03709702     9.09287999     4.45773401    -4.11758982     1.94266765    -2.23435247
Ti      5.90091399     8.89126499     0.02444000    -2.54019559    -0.79095004    -1.83340395
O       4.64871900     5.15349198     5.97818302     0.04169174     0.27232543    -0.57771115
O       4.24259399     5.29701400     0.87851298    -0.94139126    -1.30830222    -0.78429783
O       4.35172298     0.78270099     4.98657598     1.08262689    -1.04129768    -0.72231802
O       4.55723399     0.10891002     1.08881198    -0.17863337     1.97968692    -0.45585470
O       1.31270598     5.79664300     5.58859199    -0.73811180    -0.68246822    -1.85247846
O       1.68309698     5.43439598     0.79858800    -0.01978902     2.04990866     1.79727711
O       1.41038601     0.75076498     4.95257099     3.11570613     0.83705200     2.71116193
O       1.11936001     0.93653398     0.24041999     2.59503672     2.27871738     0.15694457
O       4.33278902     8.62278798     8.16813201     1.50234447    -1.37751634    -0.89473780
O       4.59747602     8.35310798     3.04467401    -0.26593136    -1.35171582     2.31676638
O       4.62322499     3.91479101     8.30040801     1.03529878     0.80352994     0.25907782
O       4.50895102     4.56496099     3.50059101    -3.95077607    -4.28874513     1.33105726
O       1.99289401     8.07755199     8.38839902    -1.54213694     2.22099995    -1.09428659
O       1.22884398     8.64416600     3.03886698     0.36149852    -1.60318189    -0.63126468
O       1.46923799     3.64967998     9.16832500    -4.59062489    -5.50056229    -2.06148840
O       1.61338799     4.23757702     3.80798198    -0.30077419    -2.66554257    -0.14157142
O       2.95001198     5.97959799     7.21832499     0.24736850    -0.72466492     2.29056272
O       2.52113801     6.19722600     3.39475202     2.54807371     2.30305931    -0.51254061
O       3.29422998     1.89489102     7.99947501    -2.52876523    -1.54993149     0.36096656
O       3.21017801     1.51483603     3.10866297    -3.65649057    -0.88761816    -2.89511311
O       0.22833998     6.27599398     7.59712599    -1.13398470    -0.96678606     2.32759716
O       5.79814300     5.78889399     2.77257398     3.16388528     3.13280500     0.19337763
O       5.59516098     1.62483001     7.48418502     2.30570292    -0.37849069    -0.30447966
O       3.09325201     7.88295802     5.70442100     1.31098593     0.56888610    -2.65433461
O       2.77938402     7.59397300     1.41306598     1.52547335     1.44974174    -1.01160169
O       3.24140201     2.84830602     5.09595501    -1.06565658     2.32675512     2.35120426
O       5.83972898     8.21038400     5.99946198     1.02246666    -1.43296066     0.39454518
O       0.16048099     7.12094801     0.59425102    -2.92975308     0.57753092     0.47776411
O       5.71991701     2.90507499     5.28176301     2.31485631     1.17575974    -0.94922464
O       0.15020199     1.63144600     3.16048303    -0.49797504     0.50171009    -2.07139486
