# total energy = -19917.59536241 eV

CRYSTAL
PRIMVEC
        6.71165726     0.00000000     0.00000000
        0.00003340     6.46292487     0.00000000
        0.00000000     0.00000000    11.46904424
PRIMCOORD
24 1
Ti      2.43267277     3.82992323     4.25493371     0.22425813    -0.91479524     0.77338195
Ti      4.27901788     2.63300150     7.21411092    -0.22425813     0.91479524    -0.77338195
Ti      5.78838443     2.63300373     1.47954279     0.22449827     0.91482224    -0.77358635
Ti      0.92330629     3.82992133     9.98950204    -0.22449827    -0.91482224     0.77358635
Ti      2.43265614     0.59846093     1.47958880     0.22425813    -0.91479524    -0.77338195
Ti      4.27903459     5.86446400     9.98945603    -0.22425813     0.91479524     0.77338195
Ti      0.92328959     0.59845857     7.21406497    -0.22449827    -0.91482224    -0.77358635
Ti      5.78840107     5.86446642     4.25497972     0.22449827     0.91482224     0.77358635
O       2.12429368     2.27570563     5.85256563     1.16874885     1.37113949    -0.44561862
O       4.58739704     4.18721910     5.61647900    -1.16874885    -1.37113949     0.44561862
O       1.23159780     2.27573177     0.11808024    -1.16812665     1.37140457    -0.44659770
O       5.48009299     4.18719303    11.35096412     1.16812665    -1.37140457     0.44659770
O       4.58738034     0.95575660     0.11804306    -1.16874885    -1.37113949    -0.44561862
O       2.12431038     5.50716813    11.35100131     1.16874885     1.37113949     0.44561862
O       5.48007629     0.95573053     5.85260289     1.16812665    -1.37140457    -0.44659770
O       1.23161431     5.50719427     5.61644181    -1.16812665     1.37140457     0.44659770
O       0.24387046     3.93111729     3.09807505    -0.17151578    -0.12101159     0.12271931
O       6.46782026     2.53180751     8.37096958     0.17151578     0.12101159    -0.12271931
O       3.59970503     2.53174736     2.63648373    -0.17143865     0.12133117    -0.12295508
O       3.11198562     3.93117744     8.83256077     0.17143865    -0.12133117     0.12295508
O       0.24385376     0.69965479     2.63644707    -0.17151578    -0.12101159    -0.12271931
O       6.46783690     5.76327001     8.83259737     0.17151578     0.12101159     0.12271931
O       3.11196899     0.69971494     8.37100618     0.17143865    -0.12133117    -0.12295508
O       3.59972174     5.76320979     3.09803845    -0.17143865     0.12133117     0.12295508
