# total energy = -19073.27861780 eV

CRYSTAL
PRIMVEC
        5.17600016     0.00000000     0.00000000
        0.00000000     5.50899976     0.00000000
        0.00000000     0.00000000     9.26300011
PRIMCOORD
22 1
Ti      1.80090099     3.25176499     3.21774397    -0.33600654     1.63130540    -0.35281616
Ti      3.38270397     2.33648102     6.09220998    -0.33402139     0.59105158    -0.53126544
Ti      4.49387899     2.16718600     1.29102501     0.55913878    -0.35977974    -1.36370540
Ti      0.89778000     3.12368801     7.92390998     0.70636149    -0.27120109     1.29234234
Ti      1.85267400     0.52398898     1.27304600    -1.10302629     0.12818728    -1.71060802
Ti      3.32126702     5.01885298     8.14672102    -1.27576078     1.00652633     1.22389724
Ti      1.43539599     0.26623902     5.87536298    -1.14738812    -0.78288629     0.00016378
Ti      4.20000898     5.00214098     3.40729802     1.45839530    -0.47866451     1.66919036
O       3.18187798     3.49740097     4.34351999     1.44194975    -0.90489906     2.05857174
O       0.91142902     1.77847700     0.18405399    -0.95545751     1.57324010    -0.64467607
O       4.39262002     3.63456700     8.65857300    -0.31389916    -0.57653822     0.71090977
O       3.41605399     0.79117301     0.31124602     1.69754295     0.03116872    -1.47094795
O       1.68544801     4.66077001     8.99340202    -0.19462667    -0.50711661     0.97971974
O       2.98525699     0.73818999     5.06156600     1.79141782     0.28226172    -2.20383192
O       0.84537600     4.75194699     4.45805099    -1.36130681     0.06169082    -0.26719737
O       5.14390302     3.49721200     2.48463298     0.13243372    -0.44525610    -0.47884114
O       0.02609802     2.24153101     6.51505901    -0.21766350    -1.17870905    -1.15718043
O       2.76974500     1.95207503     2.19834999    -0.82212494     0.81569229     1.20122421
O       2.21524202     4.12972000     6.73305400     0.41014587    -1.32954288    -0.67511435
O       0.02786102     0.66657998     2.17352099     0.46375776    -0.20563408     1.27504858
O       2.37312401     1.15470498     7.31182098     0.74276498     2.18932729     0.14920117
O       2.76713298     4.75151100     2.30069298    -1.34262723    -1.27022391     0.29591531
