# total energy = -19516.86862105 eV

CRYSTAL
PRIMVEC
        5.17600016     0.00000000     0.00000000
        0.00000000     5.50899976     0.00000000
        0.00000000     0.00000000     9.26300011
PRIMCOORD
23 1
Ti      1.94528600     3.18848301     3.35554400    -0.26263649    -1.12823854     2.70545279
Ti      3.26342599     2.24044699     6.02951300    -0.24660205     0.47829016    -3.14283334
Ti      4.45872701     2.15040097     1.47484801    -0.28309502    -1.68048599    -1.78555056
Ti      0.86784497     3.37923400     7.68427900     0.05699341     0.46593549     1.26441424
Ti      2.01328702     0.23834000     1.40884299     0.15106497     0.93532448    -2.49810327
Ti      3.21930102     5.19934698     7.90652201    -0.52124611     1.39888710     0.97573504
Ti      0.73214901     0.59153603     5.86833397    -1.05986080    -0.61056806    -3.10465270
Ti      4.53381298     4.86301499     3.40814999     0.45352811     0.93528257     3.25525795
O       1.51391600     1.87874201     4.74765102     0.43024316     0.06789283     0.28749572
O       3.43023499     3.36782901     4.42478701     1.52196071     0.80815150    -0.18526194
O       5.14827402     2.75621500     9.20580203     0.56183999     0.53514293    -0.24996300
O       3.36338398     0.91653198     0.17288200     0.21479981    -0.43972899    -0.34385149
O       1.97601098     4.50468500     9.08472601    -0.93210957    -0.80737940     0.16160649
O       4.13813900     0.67660698     4.90780302     0.17201072    -0.48263635    -0.46601493
O       1.03684498     4.77270698     4.43064802    -0.77860000    -0.50207981    -0.22808625
O       0.15164601     3.25840701     2.60094598     0.67781401     1.44489058     0.21048472
O       4.98426601     2.12863401     6.73247503    -0.54923309     0.26533949     0.25803421
O       2.80802902     1.75403102     2.25804198    -1.40341430     1.07156652     1.19315197
O       2.53101298     3.95029399     6.63683201    -0.70764653    -1.35038939     0.96436690
O       0.29844703     0.70896300     2.14474201    -0.25463932    -1.10176774    -0.48919755
O       4.92924100     4.81310099     7.24968499     1.28178770     0.09652670     0.02409202
O       2.14749098     1.05780802     7.09217898     0.47713599     0.37960475     0.63272661
O       2.90957400     4.50422901     2.26746398     0.99990496    -0.77956160     0.56069687
