# total energy = -19074.87894912 eV

CRYSTAL
PRIMVEC
        7.60600008     0.00000000     0.00000000
        0.00000000     7.60600008     0.00000000
       -1.89786986    -1.89786986     4.85670466
PRIMCOORD
22 1
Ti      3.97594300     6.45678998     1.26678800    -0.49317068     0.82873113     0.20847438
Ti      3.73081598     2.79374700     1.14829198     1.33735826    -1.48918196    -0.34682755
Ti      0.27357400     6.82704397     1.06798299    -0.35337281    -0.44769787     0.22180555
Ti      0.05339901     2.97173900     1.13492301    -1.64333919    -0.10460486    -0.80128357
Ti      5.60866220     3.03594322     3.53277679    -0.68949813    -0.56984178    -0.47003794
Ti      6.03256223    -0.82726475     3.59494681    -0.30055641    -0.01358854     0.46197187
Ti      1.81683325     2.83372020     3.65294379     0.46955226    -2.84636164    -0.96292837
Ti      1.29575622    -1.27727777     3.97159882     1.96333213     2.84894020    -1.48412537
O       3.80120798     4.61529400     0.71532302    -0.35074257     1.58403282     0.97328503
O       4.05782201     0.93608598     0.80554801    -1.15021968    -1.84988370     0.47408357
O       0.09690998     4.93164098     0.75600299     0.67484695     0.00258807    -0.62326572
O      -0.09416302     1.08503900     0.63738500     0.60434496     0.06312703     1.33430636
O       5.26268320     4.98165923     3.93417081     1.17044167    -0.64546283    -0.35991652
O       5.67577823     1.09219724     3.90049381     0.90285427    -0.77539949     0.74655325
O       2.09086224     4.62796922     4.19374384    -0.60460207     0.51294016    -0.18195755
O       1.67263721     0.79104823     4.03280981    -0.71984590     0.39232478     0.70864129
O       3.77476923     2.61799522     3.30642583    -0.50671166     0.99792238    -0.87319247
O      -0.06383375     2.83130223     3.09514080     0.57127054     0.99928404     0.57427050
O       5.82481698     6.62675700     1.72138301    -0.59703891     0.04438754    -0.03308137
O       5.67189899     3.01328798     1.46194301     0.11385852     0.12385034     1.37203834
O       2.13219998     6.53204099     2.21043502    -0.28040359    -0.10150642    -0.93665092
O       1.88977298     2.73491498     1.63840802    -0.11835795     0.44540034    -0.00216307
