# total energy = -19517.66281993 eV

CRYSTAL
PRIMVEC
        5.17600016     0.00000000     0.00000000
        0.00000000     5.50899976     0.00000000
        0.00000000     0.00000000     9.26300011
PRIMCOORD
23 1
Ti      1.83985902     3.23247002     3.41787701    -0.33804054    -0.52141117     2.73097074
Ti      3.39378399     2.19582402     5.87054302    -1.23617195     0.95479108    -2.62739098
Ti      4.34749401     2.07646100     1.44460097     0.50791159     0.30756602    -0.58575357
Ti      0.78762599     3.36416901     7.74863399     2.25585384    -0.32191792     1.48778996
Ti      1.94446302     0.26625299     1.41158000     0.52125716    -0.25039263    -1.93475456
Ti      3.36818700     5.19811897     7.87734397    -2.92303016     0.53410291     1.76590244
Ti      0.71155703     0.57822097     5.84185998     0.63377819    -0.00854326    -2.79006628
Ti      4.51596097     5.00356601     3.32829799     0.32300755    -0.80457278     3.10793986
O       1.67919800     1.89736000     4.77978901    -0.86411184    -0.28636418     0.58116312
O       3.45336898     3.48808999     4.56870899     0.98566413     0.66211793    -0.26754112
O       0.33411601     2.60351402     0.05803101    -0.67920703    -0.11441465     0.03507397
O       3.48690998     0.85637299     0.28194701    -0.50109559    -0.78247389    -1.30139366
O       1.69697698     4.75264598     9.00971598     0.72274277     0.44225768     0.88740579
O       4.26041699     0.79979701     4.77496001    -0.22450393    -0.27153713    -0.38053935
O       0.96274799     4.74299198     4.43953799    -0.11914496     0.08452299     0.72361051
O       0.12814001     3.39347702     2.55633401    -0.25194558    -0.42278439    -0.48430783
O       4.95758299     1.98124597     6.84878898     0.58552628     0.60022940     0.60083772
O       2.55056201     1.90396202     2.31302201     0.51768204    -0.06380118    -1.09275447
O       2.67087802     3.56178401     7.05141402    -0.83480845     0.05884846     1.16395940
O       0.13508599     0.60320100     2.05227299     1.06636286     0.24732222    -0.31148052
O       5.02771998     4.84891999     7.14025600     0.15048364    -0.36760695    -0.03466131
O       2.36012498     0.85669600     6.91661701    -0.02131008    -0.27095555     0.19542114
O       2.86037200     4.56640998     2.48656998    -0.27690020     0.59501700    -1.46943100
