# total energy = -19077.21699649 eV

CRYSTAL
PRIMVEC
        5.17575250     0.00001323     0.00000000
        0.00001429     5.50856584     0.00000000
        0.00000000     0.00000000     9.26345890
PRIMCOORD
22 1
Ti      1.90973926     3.41494361     3.31211897    -0.03577331     0.01301467    -0.00558135
Ti      3.42339350     2.27113162     5.92602730    -0.02274682    -0.01004890     0.00252225
Ti      4.46246053     2.24927446     1.13478404     0.01003039     0.01375155    -0.01730842
Ti      0.74135407     3.27863917     8.09102027     0.01329826    -0.01532044    -0.01449306
Ti      1.80635797     0.62428946     1.24174365     0.03452710     0.00830647    -0.00310101
Ti      3.18866620     4.98579811     8.13866837     0.02365853    -0.00429529    -0.02011452
Ti      0.80662366     0.57039080     5.77440757     0.01343428     0.02559123    -0.01747014
Ti      4.46314690     4.93861655     3.50102122     0.01600718     0.02909539     0.02502276
O       3.46921124     3.49767281     4.52800772     0.00017843     0.01296788     0.03270882
O       0.95009354     1.96229654     0.14634570     0.01397164    -0.01586963     0.01605912
O       4.13951758     3.61258465     9.13697337    -0.01402409     0.00239241    -0.00613234
O       3.56035776     0.82582260     0.07681811    -0.01616607     0.00336969     0.01136017
O       1.54417705     4.75461311     9.09748585    -0.03151479    -0.03086945     0.02227322
O       4.29912033     0.83356353     4.71463591     0.01956405    -0.00737264    -0.03275689
O       0.93950644     4.59190318     4.59028556    -0.02324098     0.01548473     0.01458099
O       0.16800840     3.30925613     2.50499630     0.01257681    -0.01832580    -0.00563843
O       5.09849428     2.00827892     6.81494763     0.02046085     0.00250580     0.02639753
O       2.73600383     2.08549228     2.17272971    -0.00450946    -0.00041446     0.01843919
O       2.34011930     3.38426159     7.05907391    -0.00732533    -0.01093773     0.01524356
O       0.19469019     0.52705790     2.18393625    -0.00679131     0.00573382    -0.01050913
O       2.46786002     0.65461791     6.68106450    -0.00324576    -0.01955942    -0.01129975
O       2.77441801     4.87054160     2.47332422    -0.01236984     0.00080013    -0.04020256
