# total energy = -19897.20018511 eV

CRYSTAL
PRIMVEC
        6.84364654     0.00000000     0.00000000
        3.11976349     6.58175476     0.00000000
        0.00000000     0.00000000    12.58708332
PRIMCOORD
24 1
Ti      4.32926160     3.90034174     4.66971811    -0.30468124    -1.93603728     0.33427285
Ti      5.63414821     2.68141293     7.91736528     0.30468124     1.93603728    -0.33427285
Ti      7.17319852     2.68141516     1.62377331    -0.01590896    -1.32192135     0.29312001
Ti      2.79021141     3.90033977    10.96331028     0.01590896     1.32192135    -0.29312001
Ti      2.76938002     0.60946446     1.62382376    -0.30468124    -1.93603728    -0.33427285
Ti      7.19402983     5.97229041    10.96325984     0.30468124     1.93603728     0.33427285
Ti      1.23032965     0.60946204     7.91731484     0.01590896     1.32192135     0.29312001
Ti      8.73308026     5.97229282     4.66976862    -0.01590896    -1.32192135    -0.29312001
O       3.26457903     2.31754771     6.42309228     1.74229173     1.92779150    -0.78448217
O       6.69883077     4.26420696     6.16399118    -1.74229173    -1.92779150     0.78448217
O       2.35434026     2.31757430     0.12959110    -0.05941822    -0.98396026     1.71316010
O       7.60906964     4.26418050    12.45749202     0.05941822     0.98396026    -1.71316010
O       5.13894916     0.97332955     0.12955021    -1.74229173    -1.92779150    -0.78448217
O       4.82446066     5.60842519    12.45753284     1.74229173     1.92779150     0.78448217
O       6.04918801     0.97330302     6.42313310     0.05941822     0.98396026     1.71316010
O       3.91422174     5.60845174     6.16395029    -0.05941822    -0.98396026    -1.71316010
O       2.14626246     4.00339639     3.40008524     0.62505521     2.96238142     2.78076171
O       7.81714728     2.57835830     9.18699822    -0.62505521    -2.96238142    -2.78076171
O       4.89259965     2.57829705     2.89349650     0.45631416     2.16243689     1.89286305
O       5.07081015     4.00345762     9.69358669    -0.45631416    -2.16243689    -1.89286305
O       0.58638083     0.71251891     2.89345629     0.62505521     2.96238142    -2.78076171
O       9.37702890     5.86923578     9.69362690    -0.62505521    -2.96238142     2.78076171
O       3.51092852     0.71258014     9.18703829    -0.45631416    -2.16243689     1.89286305
O       6.45248128     5.86917453     3.40004503     0.45631416     2.16243689    -1.89286305
