# total energy = -19961.92522834 eV

CRYSTAL
PRIMVEC
        7.60600008     0.00000000     0.00000000
        0.00000000     7.60600008     0.00000000
       -1.89786986    -1.89786986     4.85670466
PRIMCOORD
24 1
Ti      3.84043801     6.53581001     1.23084501    -0.52233266     1.56912813    -0.20642289
Ti      3.79607899     2.81019700     1.23999501    -0.08262963    -1.49254831    -1.25419024
Ti     -0.00031301     6.69983400     1.15381601     0.47465127     0.38497296     1.51893581
Ti     -0.00743600     2.92862401     1.19873401     0.09699207    -0.70062664     0.19745205
Ti      5.66351222     2.89890124     3.61620481     0.49595159    -0.59981314    -0.08308883
Ti      5.70202722    -0.91009877     3.64416881     0.43563940     0.39195017    -0.13777390
Ti      1.89600023     2.82088321     3.61496781    -0.49010412    -0.55981241     0.31598381
Ti      1.92189922    -1.00130977     3.61528680    -0.51351428     0.65091820     0.84118171
O       3.81776298     4.63603399     0.85743003     0.12933811     1.39525773    -0.58004854
O       3.81264800     0.85738298     0.81580701     0.09370029     0.97504418     0.02037189
O      -0.02272202     4.77474299     0.77553799     0.09785005    -0.03059897    -0.22433218
O      -0.03904201     0.96847602     0.80397302     0.27206832    -0.07867476    -0.18695064
O       5.60251025     4.80332322     4.09321683     0.24394224    -0.59328587    -0.78523217
O       5.66377421     0.96651420     4.09592082     0.23856092     0.57843595    -0.42557044
O       1.90567825     4.78040323     4.10207679     0.23995549    -1.92684790    -0.19166270
O       1.84485424     0.92067322     4.05663083     0.22316412     0.75888606     0.28730546
O       3.79682523     2.90540821     3.22300579     0.34310356    -0.14249033     0.15689160
O       3.77813623    -0.78331679     3.21065781     1.31211336    -0.70135581    -0.05136655
O       0.04938721     2.88517724     3.23010280    -1.25792246     0.27945793    -0.03950013
O       0.04927524    -0.95095575     3.26487779    -1.45963432     0.01441464    -0.49447809
O       5.73323301     6.60147302     1.62971802    -0.01026436    -0.10334244     0.45764985
O       5.70216798     2.73502198     1.59326401     0.31270462     0.51862127     0.97010047
O       1.92984498     6.65807001     1.64749902    -0.61014358    -0.48864631    -0.57464254
O       1.89127298     2.84503899     1.60643899    -0.06318977    -0.09904330     0.46938745
