# total energy = -4979.63133290 eV

CRYSTAL
PRIMVEC
        2.78352181     0.00000000     0.00000000
        1.67744674     4.02587190     0.00000000
       -0.00001069    -0.00005795     4.45486092
PRIMCOORD
6 1
Ti      2.23047885     2.01290684     2.22743041     0.00000000     0.00000000     0.00000000
Ti      0.00000000     0.00000000     0.00000000     0.00000000     0.00000000     0.00000000
O       1.71866841     0.78457175     0.86818676    -8.85896034     3.75894959     4.99299369
O       2.74228929     3.24124194     3.58667401     8.85896034    -3.75894959    -4.99299369
O       0.51180586     1.22831171     3.09561815     8.85842118    -3.75937228     4.99324000
O       1.16563017     2.79750215     1.35924268    -8.85842118     3.75937228    -4.99324000
