# total energy = -19516.49902648 eV

CRYSTAL
PRIMVEC
        5.93400000     0.00000000     0.00000000
        0.00000000     9.29699974     0.00000000
        0.00000000     0.00000000     4.64899994
PRIMCOORD
23 1
Ti      4.55193598     7.03907599     2.14462400     0.72845782     0.22399896     2.16683887
Ti      4.41759698     2.35088798     2.33895498     1.59900462     0.09160561     1.28434441
Ti      1.57816198     7.10015902     2.24211099    -0.74022165    -0.52576302     0.52333590
Ti      1.53021000     2.26412699     2.22952800    -2.04041948     0.06038289     0.33590113
Ti      2.98058499     4.52450602     0.22224201    -0.53776237    -0.23946210    -2.23601623
Ti      2.98437702     9.25406701     4.42479199    -0.86706630    -0.44189258     0.20718317
Ti      0.02907702     4.72476903     0.15403000     0.29591969    -0.26965560    -2.08383746
Ti      5.86388899     0.10368001     4.62255802     0.82332796     0.01112825    -0.55410070
O       4.29947700     5.66828899     1.00680999     0.22028783    -1.17492233    -1.15441752
O       4.32674698     0.76312799     0.84659502     0.47065475     1.26893064     0.78024088
O       1.48767701     5.25033898     1.28254700    -0.19882220     2.59260857    -0.20717931
O       1.45761302     0.74836099     0.89511300     0.11464270     1.82318458     0.44378285
O       4.45168398     8.37943100     3.61695698    -0.22567764     0.14625931    -0.07186313
O       4.49901503     3.73685199     3.84334002    -0.97187813    -0.24919424     0.57350791
O       1.36855699     8.32809599     3.75005199     0.78744177    -0.67810711    -1.15924785
O       1.49089001     3.78772402     3.83652601     0.05253768     0.19615390     0.29529902
O       2.92437800     1.47972400     3.19238998    -0.24981747    -1.01692156     0.62017062
O       5.68751199     5.97868500     3.33192201     0.37696577     0.56038500     0.14814239
O       0.03071599     1.39529801     3.16847101    -0.13626338    -0.56993896     0.86103680
O       2.91927202     7.91528900     1.23404701    -0.11744058    -1.53549706     1.68439767
O       3.01456700     3.45145003     1.61212198     0.04036274    -2.53818267     0.83068749
O       0.11224903     7.74683500     1.42255799    -0.33598006     1.24643117    -1.55635257
O       5.82386901     3.16336900     1.54609601     0.91174540     1.01846859    -1.73185408
