# total energy = -19947.24101218 eV

CRYSTAL
PRIMVEC
        5.38382297     0.00000000     0.00000000
        2.20387743     5.28923462     0.00000000
        0.00000000     0.00000000     9.84242529
PRIMCOORD
24 1
Ti      3.25739265     3.13439563     3.65146958     1.91461896    -3.34332315     1.13105852
Ti      4.33030784     2.15483913     6.19095582    -1.91461896     3.34332315    -1.13105852
Ti      5.54106206     2.15484093     1.26970377    -4.15923990    -0.04402399     1.16299627
Ti      2.04663847     3.13439405     8.57272168     4.15923990     0.04402399    -1.16299627
Ti      2.15545404     0.48977830     1.26974323     1.91461896    -3.34332315    -1.13105852
Ti      5.43224648     4.79945662     8.57268222    -1.91461896     3.34332315     1.13105852
Ti      0.94469973     0.48977636     6.19091630     4.15923990     0.04402399     1.16299627
Ti      6.64300079     4.79945856     3.65150904    -4.15923990    -0.04402399    -1.16299627
O       2.48003666     1.86242948     5.02251430     0.75642166     1.52965088    -1.08717955
O       5.10766377     3.42680530     4.81991109    -0.75642166    -1.52965088     1.08717955
O       1.76396063     1.86245085     0.10133329     0.71594914    -0.77858560     0.52199944
O       5.82373993     3.42678401     9.74109178    -0.71594914     0.77858560    -0.52199944
O       4.00572514     0.78218786     0.10130133    -0.75642166    -1.52965088    -1.08717955
O       3.58197534     4.50704690     9.74112374     0.75642166     1.52965088     1.08717955
O       4.72180123     0.78216653     5.02254620    -0.71594914     0.77858560     0.52199944
O       2.86589916     4.50706831     4.81987914     0.71594914    -0.77858560    -0.52199944
O       1.53612995     3.21721248     2.65868463     0.38616621     0.59611872     0.54735413
O       6.05157048     2.07202230     7.18374076    -0.38616621    -0.59611872    -0.54735413
O       3.75086264     2.07197307     2.26255937     1.61837377     0.12899615    -0.73707153
O       3.83683779     3.21726170     7.57986586    -1.61837377    -0.12899615     0.73707153
O       0.43419131     0.57259499     2.26252790     0.38616621     0.59611872    -0.54735413
O       7.15350918     4.71663977     7.57989728    -0.38616621    -0.59611872     0.54735413
O       2.73489916     0.57264427     7.18377212    -1.61837377    -0.12899615    -0.73707153
O       4.85280127     4.71659051     2.65865322     1.61837377     0.12899615     0.73707153
