# total energy = -19519.95939183 eV

CRYSTAL
PRIMVEC
        5.17575250     0.00001323     0.00000000
        0.00001429     5.50856584     0.00000000
        0.00000000     0.00000000     9.26345890
PRIMCOORD
23 1
Ti      1.84970459     3.37707388     3.38704100    -0.13036681    -0.10797326    -0.02410821
Ti      3.35430358     2.18188441     5.77425372    -0.00357435    -0.03232058    -0.03543779
Ti      4.55686280     1.94919850     1.41151811    -0.02378143     0.09540390    -0.04347531
Ti      0.87811522     3.29078185     7.93572237    -0.01334480    -0.01486972     0.12711256
Ti      1.96803420     0.55606433     1.20786928     0.00487301     0.00578833    -0.10210960
Ti      3.19298225     5.15625538     7.94339027    -0.11092360    -0.05657689    -0.02670554
Ti      0.68424812     0.68718344     5.67027811    -0.15742845     0.07181968     0.03639141
Ti      4.46142077     4.85645540     3.51776947     0.16003426    -0.00636117     0.00048517
O       1.58245475     1.91590430     4.66027597     0.02458901     0.14044039    -0.03894451
O       3.52861556     3.55540823     4.51866863    -0.08995599    -0.08566610     0.07813225
O       0.78995480     2.07958449     0.11636538    -0.08148343     0.05914362    -0.06441053
O       3.52680489     0.89169619     0.07790725     0.12678449     0.19059055     0.06031862
O       1.73144195     4.68136641     9.16555753    -0.01085983    -0.05617245    -0.11468024
O       4.12186640     0.76507392     4.73447514    -0.02733958     0.10257188     0.01618716
O       0.93735615     4.64038779     4.56440416     0.16018390    -0.06632240     0.09148708
O       0.15684269     3.36696746     2.43645173     0.09516453    -0.05623159    -0.00729654
O       4.97091629     2.11274975     6.80885521    -0.02512046     0.04935569    -0.00961182
O       2.78470907     2.16777225     2.12805543    -0.05288607    -0.11443085    -0.16000701
O       2.53802034     3.39792189     7.15087062    -0.10897008     0.02609259     0.06419841
O       0.22712006     0.54748674     2.19516124     0.06224617     0.01219989    -0.03202902
O       4.93145312     4.75686903     7.38404927     0.05986944    -0.06666230    -0.02426017
O       2.32297080     0.71668130     6.77100170     0.05191728    -0.06572925     0.00568291
O       2.78698950     4.88328825     2.43348139     0.09037302    -0.02408996     0.20308020
