# total energy = -19899.03827356 eV

CRYSTAL
PRIMVEC
        8.24885589     0.00000000     0.00000000
        0.00003113     5.26756608     0.00000000
        0.00000000     0.00000000    12.59830438
PRIMCOORD
24 1
Ti      2.98983172     3.12155476     4.67388109     0.53218230    -0.60972577     2.15152255
Ti      5.25905476     2.14601125     7.92442342    -0.53218230     0.60972577    -2.15152255
Ti      7.11411775     2.14601303     1.62522083     0.53097697     0.60967795    -2.15161254
Ti      1.13476880     3.12155319    10.97308375    -0.53097697    -0.60967795     2.15161254
Ti      2.98981643     0.48777179     1.62527137     0.53247361    -0.65984739    -2.15001151
Ti      5.25907005     4.77979436    10.97303328    -0.53247361     0.65984739     2.15001151
Ti      1.13475344     0.48776988     7.92437289    -0.53143282    -0.66000423    -2.15203908
Ti      7.11413304     4.77979627     4.67393156     0.53143282     0.66000423     2.15203908
O       2.61082578     1.85479951     6.42881832     0.67029661     1.50345596    -1.98338057
O       5.63806076     3.41276644     6.16948620    -0.67029661    -1.50345596     1.98338057
O       1.51367203     1.85482078     0.12970661    -0.66922035     1.50339528    -1.98346927
O       6.73521459     3.41274523    12.46859750     0.66922035    -1.50339528     1.98346927
O       5.63804547     0.77898333     0.12966572    -0.66952554    -1.50417998    -1.98280078
O       2.61084107     4.48858262    12.46863838     0.66952554     1.50417998     1.98280078
O       6.73519923     0.77896212     6.42885914     0.66873981    -1.50367990    -1.98232359
O       1.51368719     4.48860389     6.16944531    -0.66873981     1.50367990     1.98232359
O       0.29971883     3.20403230     3.40311631    -2.17129048     0.69733769     0.17283887
O       7.94916771     2.06353365     9.19518813     2.17129048    -0.69733769    -0.17283887
O       4.42415627     2.06348468     2.89607595    -2.17256215    -0.69744516    -0.17422470
O       3.82473020     3.20408134     9.70222829     2.17256215     0.69744516     0.17422470
O       0.29970347     0.57024919     2.89603574    -2.17211247     0.69690805    -0.17408355
O       7.94918301     4.69731676     9.70226850     2.17211247    -0.69690805     0.17408355
O       3.82471491     0.57029823     9.19522828     2.17339236     0.69673502    -0.17347471
O       4.42417157     4.69726772     3.40307610    -2.17339236    -0.69673502     0.17347471
