# total energy = -19929.13253081 eV

CRYSTAL
PRIMVEC
        6.09638777     0.00000000     0.00000000
        2.49556709     5.98928037     0.00000000
        0.00000000     0.00000000    11.14509922
PRIMCOORD
24 1
Ti      3.68851815     3.54924211     4.13475232     0.26471111    -2.60706872     0.73814034
Ti      4.90343682     2.44003843     7.01034703    -0.26471111     2.60706872    -0.73814034
Ti      6.27443792     2.44004046     1.43775280    -1.07258493    -1.02080907     0.39890038
Ti      2.31751709     3.54924032     9.70734661     1.07258493     1.02080907    -0.39890038
Ti      2.44073472     0.55460190     1.43779748     0.26471111    -2.60706872    -0.73814034
Ti      6.15122028     5.43467882     9.70730193    -0.26471111     2.60706872     0.73814034
Ti      1.06973352     0.55459970     7.01030229     1.07258493     1.02080907     0.39890038
Ti      7.52222148     5.43468102     4.13479700    -1.07258493    -1.02080907    -0.39890038
O       2.80827681     2.10892750     5.68725884     1.77401427     2.13828548    -0.90674023
O       5.78367810     3.88035306     5.45784050    -1.77401427    -2.13828548     0.90674023
O       1.99742601     2.10895170     0.11474505    -0.06130129    -0.80977695     1.48869422
O       6.59452904     3.88032895    11.03035393     0.06130129     0.80977695    -1.48869422
O       4.53589465     0.88571273     0.11470886    -1.77401427    -2.13828548    -0.90674023
O       4.05606032     5.10356782    11.03039011     1.77401427     2.13828548     0.90674023
O       5.34674551     0.88568857     5.68729496     0.06130129     0.80977695     1.48869422
O       3.24520934     5.10359205     5.45780432    -0.06130129    -0.80977695    -1.48869422
O       1.73944127     3.64302001     3.01056937     0.60982013     2.48724730     2.35224325
O       6.85251364     2.34626054     8.13452998    -0.60982013    -2.48724730    -2.35224325
O       4.24730034     2.34620480     2.56201576     0.91049379     1.83761002     1.17619631
O       4.34465456     3.64307575     8.58308340    -0.91049379    -1.83761002    -1.17619631
O       0.49165780     0.64837962     2.56198012     0.60982013     2.48724730    -2.35224325
O       8.10029716     5.34090092     8.58311898    -0.60982013    -2.48724730     2.35224325
O       3.09687111     0.64843542     8.13456549    -0.91049379    -1.83761002     1.17619631
O       5.49508379     5.34084513     3.01053379     0.91049379     1.83761002    -1.17619631
