# total energy = -19958.10879330 eV

CRYSTAL
PRIMVEC
        7.60600008     0.00000000     0.00000000
        0.00000000     7.60600008     0.00000000
       -1.89786986    -1.89786986     4.85670466
PRIMCOORD
24 1
Ti      3.70045401     6.66090603     1.33390800    -2.65279144     1.42885409     0.16480443
Ti      3.74015601     3.04469000     1.21869399    -0.07419358    -1.37829693     1.56995705
Ti     -0.13157802     6.55750902     1.12207199     3.28233425    -0.25443852     0.32946797
Ti      0.11629099     2.68250399     1.10152700    -0.94593080     0.69925676    -1.13483573
Ti      5.78479721     2.94033820     3.59704082     0.01626018    -3.10288532    -2.42753932
Ti      5.81096021    -1.10789777     3.54159881    -1.40577766     2.68597128     0.82497552
Ti      1.89203420     2.93931821     3.73621883    -0.07747251     0.97864784    -0.75235494
Ti      1.76979722    -0.94319077     3.80047883     1.91050494    -0.62751421    -0.18999945
O       3.65077400     4.88418399     0.84763898     0.57582293    -1.16355137     0.41762238
O       3.68945601     1.09119598     0.84316701     0.13100675    -0.69210575     1.11734606
O       0.21462101     4.67909701     0.54176400    -0.91520816     0.12672458     2.03423006
O       0.43410400     0.83081400     0.58365700    -1.89691896    -0.38952022     1.41860232
O      -1.56221178     4.64061021     4.09179879    -1.03876849     1.96886977    -0.68805317
O       5.70507422     0.84496023     3.79454479    -0.26316562    -0.37477776     0.63782203
O       1.56084121     4.80641123     4.26103682     0.38968374     0.28749392    -0.22016982
O       2.04287422     1.14542522     4.26390480    -0.25913721    -1.39741103    -1.97168590
O       3.69034625     3.10051020     3.27833784     2.23598435     0.11522326    -0.60475274
O       3.54744521    -1.25709776     3.32681682     2.80265158     0.70775014    -0.05796966
O       0.16677423     2.92767922     3.04896882    -1.98020191    -0.85971654     1.11612530
O      -0.02351680    -0.95860776     3.29760984    -1.08855997     0.29598551    -2.18582776
O       5.57802998     6.62268398     1.48316101     2.27831398    -0.29118500     0.91170323
O       5.94689002     3.00139398     1.55564501    -2.54190074    -0.31660293     0.43788448
O       1.81798802     6.37407100     1.78522300    -1.59737942     1.26892961    -0.50320801
O       1.83695098     2.89605501     1.59143999     3.11484353     0.28429829    -0.24414485
