# total energy = -19947.79425810 eV

CRYSTAL
PRIMVEC
        5.29479462     0.00000000     0.00000000
        0.00002462     4.61066960     0.00000000
        0.00000000     0.00000000     8.70203705
PRIMCOORD
24 1
Ti      1.91912296     2.73227844     3.22839379    -0.60005353     1.80670561    -3.09585361
Ti      3.37569632     1.87839096     5.47364360     0.60005353    -1.80670561     3.09585361
Ti      4.56642853     1.87839245     1.12259014    -0.59539829    -1.80686039     3.08844549
Ti      0.72839075     2.73227710     7.57944735     0.59539829     1.80686039    -3.08844549
Ti      1.91911085     0.42694374     1.12262503    -0.60000648     1.80719463     3.08687120
Ti      3.37570844     4.18372582     7.57941246     0.60000648    -1.80719463    -3.08687120
Ti      0.72837864     0.42694205     5.47360871     0.59541449     1.80665084     3.09751891
Ti      4.56644065     4.18372745     3.22842868    -0.59541449    -1.80665084    -3.09751891
O       1.67584461     1.62349508     4.44058303     0.08221414    -2.06970796     1.83904470
O       3.61897468     2.98717433     4.26145436    -0.08221414     2.06970796    -1.83904470
O       0.97160098     1.62351371     0.08959236    -0.08248873    -2.07094826     1.83995384
O       4.32321836     2.98715575     8.61244478     0.08248873     2.07094826    -1.83995384
O       3.61896256     0.68183948     0.08956411    -0.08238435     2.06979615     1.83897862
O       1.67585672     3.92882993     8.61247303     0.08238435    -2.06979615    -1.83897862
O       4.32320619     0.68182089     4.44061128     0.08229024     2.07079245     1.83974069
O       0.97161299     3.92884856     4.26142611    -0.08229024    -2.07079245    -1.83974069
O       0.19238702     2.80447064     2.35063739     1.50191535    -0.52976212     0.60169544
O       5.10243227     1.80619877     6.35140000    -1.50191535     0.52976212    -0.60169544
O       2.83978962     1.80615592     2.00040899     1.50275225     0.52973512    -0.60262130
O       2.45502966     2.80451349     6.70162825    -1.50275225    -0.52973512     0.60262130
O       0.19237485     0.49913579     2.00038118     1.50178834    -0.52959114    -0.60279330
O       5.10244443     4.11153362     6.70165606    -1.50178834     0.52959114     0.60279330
O       2.45501750     0.49917864     6.35142776    -1.50260570    -0.52974566    -0.60138254
O       2.83980178     4.11149077     2.35060958     1.50260570     0.52974566     0.60138254
