# total energy = -19957.76343946 eV

CRYSTAL
PRIMVEC
        7.60600008     0.00000000     0.00000000
        0.00000000     7.60600008     0.00000000
       -1.89786986    -1.89786986     4.85670466
PRIMCOORD
24 1
Ti      3.69889998     6.70964902     1.32209999    -1.75302969     0.41246064    -0.26987389
Ti      3.82485199     2.93415000     1.41075898    -1.76364835    -0.44840750    -2.91996592
Ti     -0.01000500     6.51712597     1.07785198     1.89192794     0.44062040     2.49045064
Ti      0.08411500     2.76653099     1.06553300     0.62861696    -0.94947661     1.15139879
Ti      5.72088022     2.74878821     3.54524780     0.71708454    -0.78652029     0.39846946
Ti      5.75092621    -1.08173080     3.61156980     1.25128541     1.18775677    -0.10360933
Ti      1.74931124     3.12858121     3.62399980     0.65410226    -2.17961109     0.60620927
Ti      1.79292020    -0.83374178     3.76028184     0.36426632     2.63975105    -0.16442442
O       3.33326898     4.86388200     0.81008999     2.02480414     0.13835857    -0.34696433
O       3.52473002     1.10734298     0.96900499     1.22481049    -1.14564183    -0.62986960
O       0.22128700     4.52547902     0.70362498    -0.80617072     3.45635660    -0.30059035
O       0.36475098     0.95887399     0.81983002    -1.47751558    -2.10558206    -2.53770573
O      -1.42791178     4.60866521     4.12698881    -1.70956441     0.54815066    -1.64640241
O       5.75314521     0.88927724     3.96018780    -0.15088910    -1.20169524    -1.19807435
O       1.86051921     4.94811823     4.11371980     0.37224317    -2.61069218     0.92062548
O       1.93277720     1.00266621     3.99811981    -0.13001122     0.56883416     1.33648949
O       3.69988525     2.85179621     3.31259482     2.84226587     0.86416558     0.65748017
O       3.65006221    -0.94947877     3.24259980     3.64352475    -0.66275376     0.17716604
O       0.12785224     2.62820025     2.92298881    -2.00490894     0.57304023     2.97777411
O       0.12820224     6.39434420     3.05357081    -4.36398001     0.42049739     0.88850442
O       5.76410701     6.77620401     1.58382201    -0.82337527    -0.74771281     0.51848448
O       5.77653802     2.70179801     1.65469900    -1.06095634     0.68830128    -0.36596787
O       1.80436202     6.72837401     1.73487502     1.34917171    -0.01060503    -1.31929086
O       1.99532997     2.85524999     1.69031099    -0.92005392     0.91040611    -0.32031252
