# total energy = -4989.29866260 eV

CRYSTAL
PRIMVEC
        3.10902667     0.00000000     0.00000000
        0.72662006     4.81688215     0.00000000
       -0.00000456    -0.00006323     4.88521464
PRIMCOORD
6 1
Ti      1.91782080     2.40840937     2.44260727     0.00000000     0.00000000     0.00000000
Ti      0.00000000     0.00000000     0.00000000     0.00000000     0.00000000     0.00000000
O       1.69611985     0.93872700     0.95205635    -0.02159368    -0.22346571    -0.30027951
O       2.13952175     3.87809174     3.93315813     0.02159368     0.22346571     0.30027951
O       0.22169896     1.46965675     3.39466465     0.02164715     0.22353179    -0.30056516
O       0.50491609     3.34716210     1.49054982    -0.02164715    -0.22353179     0.30056516
