# total energy = -39040.39732245 eV

CRYSTAL
PRIMVEC
        7.60629642    -0.00000847    -0.00005503
       -0.00000847     7.60629642    -0.00005503
       -3.80314186    -3.80314186     9.70738094
PRIMCOORD
46 1
Ti      1.89062868     4.82734394     6.11809583    -0.01812268     0.02601495    -0.00151669
Ti      3.79219735     6.72898413     1.26442750    -0.01803012     0.02602652    -0.00117422
Ti      1.93569262     0.87112572     6.08566283    -0.09677739     0.00147967    -0.14167529
Ti      3.83726154     2.77271847     1.23195416    -0.09676736     0.00173164    -0.14183907
Ti     -1.88980480     4.74363475     6.06966911    -0.00027845     0.00753822     0.01593673
Ti      0.01177267     6.64522559     1.21597486    -0.00028051     0.00736621     0.01633885
Ti     -1.93069211     0.96091679     6.03969151     0.04008068    -0.02445249    -0.07749951
Ti     -0.02910081     2.86247194     1.18600068     0.04001127    -0.02426120    -0.07756738
Ti      3.80705203     0.95853275     8.50530948    -0.00935779     0.01954862    -0.03445022
Ti      5.70863538     2.86011254     3.65155984    -0.00964473     0.01924137    -0.03399180
Ti      3.81050190    -2.86050437     8.49684858    -0.00512190    -0.02192046     0.04607727
Ti      5.71206729    -0.95895338     3.64314641    -0.00510056    -0.02153968     0.04608396
Ti     -0.00444544     0.96209191     8.35084182     0.00281305     0.02040428     0.16168517
Ti      1.89712184     2.86358252     3.49714455     0.00309664     0.02089228     0.16221636
Ti     -0.00139460    -2.85779505     8.54498087    -0.00677049    -0.03161892     0.23388614
Ti      1.90017358    -0.95611484     3.69128838    -0.00687925    -0.03232855     0.23352850
O       1.89431292    -0.95361803     5.66006948     0.00984321     0.00270326     0.11430692
O       3.79589934     0.94799544     0.80640623     0.00973266     0.00354170     0.11432569
O      -1.90184195     2.85300745     5.63346295     0.00030853     0.01822141    -0.09158273
O      -0.00026891     4.75460906     0.77978630     0.00027228     0.01752079    -0.09161050
O      -1.90035236    -0.95001282     5.66702713     0.00675738    -0.01869347     0.00789740
O       0.00121322     0.95153521     0.81338215     0.00683528    -0.01813965     0.00765649
O       3.81654440     2.85428093     8.92856271     0.05322160     0.02732287     0.02006772
O       5.71811555     4.75584463     4.07483863     0.05316555     0.02723391     0.02044413
O       3.78402505    -0.95296383     8.88783651    -0.01088940    -0.01903080    -0.03850588
O       5.68558913     0.94861251     4.03411805    -0.01088580    -0.01909559    -0.03857736
O      -0.01232190     2.74462058     9.00469762    -0.04664369     0.00366048    -0.11064695
O       1.88925410     4.64606594     4.15098037    -0.04658146     0.00460433    -0.10947890
O       0.02006725    -0.84603586     8.96304146    -0.00499411    -0.04133693    -0.21227858
O       1.92164878     1.05537416     4.10929303    -0.00491621    -0.04073220    -0.21303886
O       1.91522382     0.98982950     8.06692477     0.02655154     0.00488407    -0.07137282
O       3.81680412     2.89142531     3.21322812     0.02632142     0.00457374    -0.07193049
O       1.87895171    -2.88803348     8.12654839     0.05177998     0.01437196    -0.03416046
O       3.78050747    -0.98649411     3.27275304     0.05199492     0.01430614    -0.03304280
O      -1.91943371     0.93694933     8.02322946     0.01067445    -0.02824795     0.00686073
O      -0.01786083     2.83851216     3.16948453     0.01081843    -0.02848475     0.00729525
O      -1.88055156    -2.83994192     8.08315734    -0.05902895     0.02347290     0.02968468
O       0.02102904    -0.93842883     3.22943984    -0.05912125     0.02355029     0.02975333
O       3.78134593     4.65591130     6.49112002     0.00696538    -0.02263806     0.08095636
O       5.68287243     6.55751266     1.63744399     0.00792389    -0.02284863     0.08064088
O       3.78387955     1.05249142     6.44726592     0.00806093     0.05532939    -0.04556768
O       5.68546995     2.95407880     1.59358093     0.00743203     0.05533813    -0.04567721
O       0.01805526     4.65124923     6.47629734     0.01418144    -0.03745970     0.13455411
O       1.91966234     6.55282862     1.62261440     0.01325918    -0.03745533     0.13428697
O       0.02182232     1.05353293     6.41709403     0.02662044     0.01975276     0.00642313
O       1.92336573     2.95510048     1.56340158     0.02746968     0.01965326     0.00627889
