# total energy = -19925.70615604 eV

CRYSTAL
PRIMVEC
        6.23873150     0.00000000     0.00000000
        0.33182168     6.63160050     0.00000000
        0.00000000     0.00000000    11.16944906
PRIMCOORD
24 1
Ti      2.45787723     3.92988015     4.14378594    -0.01576575    -1.12030617     0.67063317
Ti      4.11267568     2.70172010     7.02566326     0.01576575     1.12030617    -0.67063317
Ti      5.51568735     2.70172236     1.44089402     0.08987243     0.61429925    -0.56488263
Ti      1.05486563     3.92987814     9.72855530    -0.08987243    -0.61429925     0.56488263
Ti      2.29196653     0.61408015     1.44093879    -0.01576575    -1.12030617    -0.67063317
Ti      4.27858639     6.01752029     9.72851053     0.01576575     1.12030617     0.67063317
Ti      0.88895491     0.61407769     7.02561843    -0.08987243    -0.61429925    -0.56488263
Ti      5.68159807     6.01752274     4.14383076     0.08987243     0.61429925     0.56488263
O       2.09143786     2.33509917     5.69968436     1.50340454     1.47256363    -0.13554758
O       4.47911505     4.29650108     5.46976483    -1.50340454    -1.47256363     0.13554758
O       1.26164566     2.33512593     0.11499573    -1.28197437     1.08602949     0.18443173
O       5.30890731     4.29647438    11.05445314     1.28197437    -1.08602949    -0.18443173
O       4.31320434     0.98070089     0.11495951    -1.50340454    -1.47256363    -0.13554758
O       2.25734857     5.65089936    11.05448936     1.50340454     1.47256363     0.13554758
O       5.14299660     0.98067419     5.69972065     1.28197437    -1.08602949     0.18443173
O       1.42755625     5.65092619     5.46972855    -1.28197437     1.08602949    -0.18443173
O       0.42850029     4.03371520     3.01714690     0.47036241     0.06353070     0.58517173
O       6.14205269     2.59788504     8.15230236    -0.47036241    -0.06353070    -0.58517173
O       3.47603139     2.59782326     2.56761322     0.52443582     0.61176311    -0.08642921
O       3.09452159     4.03377699     8.60183578    -0.52443582    -0.61176311     0.08642921
O       0.26258958     0.71791502     2.56757757     0.47036241     0.06353070    -0.58517173
O       6.30796340     5.91368523     8.60187143    -0.47036241    -0.06353070     0.58517173
O       2.92861088     0.71797680     8.15233794    -0.52443582    -0.61176311    -0.08642921
O       3.64194210     5.91362345     3.01711119     0.52443582     0.61176311     0.08642921
