# total energy = -4987.22374235 eV

CRYSTAL
PRIMVEC
        2.92500353     0.00000000     0.00000000
        1.34465745     4.38134350     0.00000000
       -0.00000895    -0.00006006     4.63666156
PRIMCOORD
6 1
Ti      2.13482607     2.19064176     2.31833078     0.00000000     0.00000000     0.00000000
Ti      0.00000000     0.00000000     0.00000000     0.00000000     0.00000000     0.00000000
O       1.72455396     0.85384770     0.90361703    -3.00177588     1.42137012     1.53389269
O       2.54509823     3.52743582     3.73304447     3.00177588    -1.42137012    -1.53389269
O       0.41026844     1.33676975     3.22194884     3.00136785    -1.42120017     1.53337667
O       0.93438025     3.04451356     1.41471272    -3.00136785     1.42120017    -1.53337667
