# total energy = -19960.68563210 eV

CRYSTAL
PRIMVEC
        5.33269165     0.00000000     0.00000000
        0.28363181     5.66850499     0.00000000
        0.00000000     0.00000000     9.54732991
PRIMCOORD
24 1
Ti      2.10092411     3.35915067     3.54199130     0.19335089    -0.52086198     0.38706276
Ti      3.51539913     2.30935411     6.00533872    -0.19335089     0.52086198    -0.38706276
Ti      4.71465392     2.30935605     1.23163556    -0.21275244    -0.00147453    -0.04130633
Ti      0.90166937     3.35914895     8.31569457     0.21275244     0.00147453     0.04130633
Ti      1.95910832     0.52489839     1.23167382     0.19294157    -0.52102319    -0.38725353
Ti      3.65721492     5.14360655     8.31565631    -0.19294157     0.52102319     0.38725353
Ti      0.75985358     0.52489629     6.00530040     0.21270899     0.00047308    -0.04398825
Ti      4.85646972     5.14360865     3.54202961    -0.21270899    -0.00047308     0.04398825
O       1.78770207     1.99597688     4.87192937     0.52647393     0.56529761    -0.12509681
O       3.82862116     3.67252789     4.67540064    -0.52647393    -0.56529761     0.12509681
O       1.07841912     1.99599976     0.09829511    -0.35173553     0.22084859     0.17694596
O       4.53790418     3.67250507     9.44903464     0.35173553    -0.22084859    -0.17694596
O       3.68680537     0.83827545     0.09826415    -0.52738051    -0.56626434    -0.12578638
O       1.92951787     4.83022933     9.44906559     0.52738051     0.56626434     0.12578638
O       4.39608838     0.83825263     4.87196039     0.35038287    -0.21969493     0.17774454
O       1.22023480     4.83025226     4.67536963    -0.35038287     0.21969493    -0.17774454
O       0.36626996     3.44790594     2.57897204     0.05918759     0.02547064     0.13423246
O       5.25005333     2.22059883     6.96835803    -0.05918759    -0.02547064    -0.13423246
O       2.97121355     2.22054602     2.19472333     0.27741365     0.18134229    -0.10530368
O       2.64510974     3.44795875     7.35260652    -0.27741365    -0.18134229     0.10530368
O       0.22445416     0.61365350     2.19469286     0.05811030     0.02486643    -0.13469475
O       5.39186913     5.05485128     7.35263699    -0.05811030    -0.02486643     0.13469475
O       2.50329394     0.61370631     6.96838845    -0.27813819    -0.18010713    -0.10483831
O       3.11302935     5.05479846     2.57894151     0.27813819     0.18010713     0.10483831
