# total energy = -19890.69938422 eV

CRYSTAL
PRIMVEC
        7.95771948     0.00000000     0.00000000
        0.00002474     2.82313999     0.00000000
        0.00000000     0.00000000    12.66006050
PRIMCOORD
24 1
Ti      2.88430504     1.67299005     4.69679226    -0.29656606     0.43147421     1.22923819
Ti      5.07343885     1.15014967     7.96326862     0.29656606    -0.43147421    -1.22923819
Ti      6.86302904     1.15015058     1.63318760    -0.29598859    -0.43175703    -1.22939452
Ti      1.09471491     1.67298925    11.02687339     0.29598859     0.43175703     1.22939452
Ti      2.88429300     0.26142011     1.63323837    -0.29667379     0.43290940    -1.23024812
Ti      5.07345095     2.56171972    11.02682262     0.29667379    -0.43290940     1.23024812
Ti      1.09470281     0.26141914     7.96321785     0.29604181     0.43293074    -1.22865455
Ti      6.86304114     2.56172068     4.69684303    -0.29604181    -0.43293074     1.22865455
O       2.51867704     0.99407550     6.46033212     5.16594826    -0.21203021     0.54734127
O       5.43906690     1.82906428     6.19972876    -5.16594826     0.21203021    -0.54734127
O       1.46024640     0.99408696     0.13034244    -5.16370857    -0.21231355     0.54829927
O       6.49749760     1.82905282    12.52971806     5.16370857     0.21231355    -0.54829927
O       5.43905480     0.41749423     0.13030133    -5.16621849     0.21222510     0.54804704
O       2.51868914     2.40564549    12.52975917     5.16621849    -0.21222510    -0.54804704
O       6.49748550     0.41748282     6.46037318     5.16294624     0.21252978     0.54723663
O       1.46025833     2.40565695     6.19968770    -5.16294624    -0.21252978    -0.54723663
O       0.28913721     1.71719377     3.41979824    -0.03219331     0.12164613     3.40277479
O       7.66860674     1.10594595     9.24026258     0.03219331    -0.12164613    -3.40277479
O       4.26800747     1.10591978     2.91027242    -0.03220976    -0.12159574    -3.39922538
O       3.68973648     1.71722000     9.74978825     0.03220976     0.12159574     3.39922538
O       0.28912511     0.30562378     2.91023201    -0.03143406     0.12173741    -3.39933388
O       7.66861884     2.51751600     9.74982866     0.03143406    -0.12173741     3.39933388
O       3.68972443     0.30564995     9.24030294     0.03267719     0.12168624    -3.40238578
O       4.26801951     2.51748977     3.41975783    -0.03267719    -0.12168624     3.40238578
