# total energy = -19961.60899096 eV

CRYSTAL
PRIMVEC
        5.93400000     0.00000000     0.00000000
        0.00000000     9.29699974     0.00000000
        0.00000000     0.00000000     4.64899994
PRIMCOORD
24 1
Ti      4.45632799     6.94306498     2.31890599    -0.36261438     0.36736553     0.11493812
Ti      4.44255499     2.32300102     2.32862401     0.08673054    -0.01449820     0.37889436
Ti      1.48047099     6.98351798     2.33417100     0.44906519     0.28231366     0.02241849
Ti      1.47109497     2.34698799     2.32011198    -0.12982996    -0.31549350     0.10662857
Ti      2.96646098     4.65637800     0.01296400     0.12270029    -0.05894796    -0.08594301
Ti      2.98267503     0.00564500     4.64350301    -0.06523688    -0.33900959    -0.15683247
Ti      0.00856399     4.65115798     0.00161299    -0.13565197    -0.06364125    -0.08092319
Ti      5.93156499     9.28470002     0.02940802     0.06138228    -0.10473547    -0.35063278
O       4.40985998     5.56867799     0.87848303     0.30566366    -0.30380578    -0.00984476
O       4.43046699     0.89589301     0.85689302     0.26128049     0.23791378     0.31419766
O       1.49364899     5.56707199     0.91124301    -0.10313239    -0.01891227    -0.07470472
O       1.47331699     0.91684102     0.93273602     0.04793978    -0.25432179    -0.40885980
O       4.45841300     8.36690802     3.68512898    -0.00795088     0.49816762     0.64060833
O       4.46139100     3.71717802     3.70083401    -0.14284669     0.31479493     0.47582267
O       1.47219598     8.37431999     3.73245098    -0.11402384     0.05421147    -0.00991829
O       1.46026002     3.73689898     3.78282601     0.24951691    -0.08937621    -0.35653629
O       2.98492302     6.11108398     3.23248198    -0.58492284    -0.47411726     0.04553682
O       2.98358500     1.40362001     3.24799799    -0.05725772     0.39752329    -0.47415736
O       5.89359197     6.01144901     3.24309998     0.56383722     0.52570517    -0.48515758
O       5.92669598     1.41104801     3.20342602     0.18245892     0.07519940     0.00573768
O       2.99080599     7.87851600     1.39168097    -0.56827520    -0.12587740     0.15230295
O       2.99848102     3.24698202     1.39490800    -0.24941227    -0.21652759     0.23475209
O       5.89769701     7.88838499     1.40359699     0.53380158    -0.23874887     0.10273026
O       0.04646298     3.26393099     1.44120498    -0.34322183    -0.13518197    -0.10105750
