# total energy = -19073.11369061 eV

CRYSTAL
PRIMVEC
        5.17600016     0.00000000     0.00000000
        0.00000000     5.50899976     0.00000000
        0.00000000     0.00000000     9.26300011
PRIMCOORD
22 1
Ti      1.85941498     3.27640401     3.29031799     0.93638995     1.87732766    -0.17881386
Ti      3.79489299     2.19948799     5.92834098    -1.21644952    -0.31338494    -1.23805502
Ti      4.35390102     2.22887801     1.35647100     1.70634256     0.08263092    -2.13208037
Ti      0.66242599     3.22249397     8.20269400    -0.51736503     0.63216354    -0.18422912
Ti      1.81924698     0.55759603     1.31727299    -0.27160681    -0.75092747    -2.12668594
Ti      3.22992299     5.13890198     7.88331801    -0.49226771     1.34375080     1.61403246
Ti      0.73879298     0.10151498     6.05186402    -0.91057992    -0.82979968    -1.06112501
Ti      4.50094901     4.91154399     3.38309398    -0.59550988     0.02863464     0.45953935
O       3.57998099     3.45742698     4.27475299    -0.49447397    -0.73606700     1.83166846
O       0.83171900     2.00649598     0.25632801     0.96304638    -0.47741290     0.45432850
O       4.24269199     3.76486298     8.82753200    -1.12294901     0.07231950     0.54191958
O       3.51265303     0.98081998     0.19991502    -0.80701970    -0.84421458    -1.77268064
O       1.73174298     4.82379799     9.19367799    -0.46477695    -1.00040067    -1.32302050
O       4.54416797     0.96431700     4.73473603     0.24013084    -0.24219209     1.10853977
O       1.04472797     4.70614199     4.17158798    -0.54540652     0.58873219     3.67287725
O       0.24793499     3.68657602     2.30450199    -0.81817032    -1.73705619    -1.40164795
O       4.99422201     1.49707599     7.21313402    -0.37703828    -0.07619596    -0.86492431
O       2.75442299     1.97671997     2.14268800    -1.68382020     1.08097727     2.48366729
O       1.63916802     3.97609799     6.78822798     1.60859535     0.14443794    -0.42936025
O       5.14296198     0.78488898     2.22140503     1.30776640     0.23645236    -0.00380703
O       2.24776800     0.97943999     6.43233903     2.46002419     1.05208603     0.57842515
O       2.67473398     4.80131901     2.41006000     1.09513789    -0.13186113    -0.02856831
