# total energy = -19959.60890546 eV

CRYSTAL
PRIMVEC
        7.60600008     0.00000000     0.00000000
        0.00000000     7.60600008     0.00000000
       -1.89786986    -1.89786986     4.85670466
PRIMCOORD
24 1
Ti      3.74446701     6.51749201     1.28373998    -0.22403033    -0.04467345    -0.81182124
Ti      3.72891401     2.77685201     1.26740200     0.01895958     0.25092331    -0.79787994
Ti      0.07333698     6.75787601     1.16480702    -0.68769579    -0.59817251     0.97401446
Ti     -0.05059300     2.94846599     1.11170298     1.04976510     0.99939897     0.33994187
Ti      5.72728723     3.07567623     3.56561880     0.89744723    -1.04604831     1.44117250
Ti      5.70794823    -0.91929979     3.56737482     2.20118137     0.62079746     0.69966608
Ti      1.85676623     2.72617921     3.62461180    -1.01938467     0.06420458    -0.05858775
Ti      1.91316420    -1.13901477     3.68428680    -1.75747513     0.43674291    -0.32746970
O       3.50332099     4.72483099     0.78189198     1.40921445    -0.84941207    -0.19495371
O       3.67644402     0.90562299     1.09332999     0.78762946    -1.08321311    -1.40103680
O       0.13640300     4.84891099     0.76698802    -0.64622876    -0.32428488    -0.07144198
O       0.17636202     1.05891702     0.67348399    -0.96047297    -0.20452876     0.60664687
O      -1.40155579     4.80147120     4.18791384    -1.59048783     0.96006930    -1.76562579
O       5.75262122     1.10136121     4.07961983    -0.86294225    -0.98092404    -1.27759063
O       1.55129623     4.57554120     4.13788082     1.54235882     2.60907727     0.14179973
O       1.95618123     0.78645624     4.01420781     0.34010899     0.42136283     0.62900802
O       3.72916320     2.97319725     3.13764183     1.11156467     0.02832123     1.66384966
O       3.85181723     6.27202520     3.21637081    -0.60394156     0.24129375     0.54576981
O      -0.06189876     2.90179325     3.22809283     1.74627077    -1.29035102    -0.73848564
O      -0.01408977    -0.91151480     3.16060982     0.61686084     0.35088552     1.12246461
O       5.82081798     6.61021899     1.61943902    -2.32226135     0.26686184    -0.63799018
O       5.79515601     3.23033802     1.67380002    -1.84625330    -0.69794704    -1.17135441
O       1.81111300     6.53781998     1.74964001     2.87603783     0.27440160     0.80662427
O       1.95830498     2.90800198     1.61830600    -2.07622468    -0.40478563     0.28327988
