# total energy = -19516.15299806 eV

CRYSTAL
PRIMVEC
        5.17600016     0.00000000     0.00000000
        0.00000000     5.50899976     0.00000000
        0.00000000     0.00000000     9.26300011
PRIMCOORD
23 1
Ti      1.92292699     3.23721198     3.40027398    -1.87630976    -0.55641444     3.77047379
Ti      3.36092097     2.23770501     5.77422102    -0.43469554     1.87403717    -2.49884169
Ti      4.33449302     2.07396503     1.58495497     1.36345934     0.50000647    -1.43961982
Ti      0.78296198     3.32912801     7.78936000    -0.46590309     1.07326782     1.80773070
Ti      2.14929600     0.16355900     1.30645698    -1.91850930     0.93892557    -0.71204312
Ti      3.32055999     5.19221002     7.83795498    -0.12187728    -2.39763301     2.51857286
Ti      0.67364402     0.62533902     5.85401301     1.15228813    -1.86853397    -3.80390483
Ti      4.45932202     4.98877799     3.38842602     3.67491048     0.10230012     3.38343083
O       1.67993102     1.95739098     4.73383801    -0.02823201    -0.52661380     1.17971333
O       3.52414099     3.79237300     4.60878501    -0.04887258    -2.04763709     0.98064868
O       4.86489998     3.03819900     0.00822802    -0.36077270    -0.65812218     0.57046681
O       3.64285100     0.59969001     0.27742001    -0.06469206     0.34268267    -1.27050698
O       1.63916601     4.76150102     8.96703402     1.37242221     0.02743728     0.74670134
O       4.14358699     0.85145800     4.74457999     1.24645199    -0.30543406    -0.87197119
O       0.90041398     4.66306299     4.61735599    -0.32635384     1.19198212    -0.47204520
O       0.16774702     3.14603998     2.77627399    -1.03847024     1.15603166    -1.21440189
O       5.06018702     2.08705401     6.69429499    -0.61610108     0.44203502     1.09457122
O       2.63118798     1.87349099     2.40914198     0.68175860    -0.47515290    -2.34761655
O       2.43493403     3.41482599     6.96419502     1.13744078     0.31042894     1.33287426
O       0.25678099     0.70857601     2.01394701     1.11941477    -1.64076835     0.20049136
O       5.15287199     4.77786799     7.07872200    -1.99497676     1.14334377     0.23862006
O       2.53032500     0.71247298     6.71309301    -1.43171598     0.60810572     0.13683570
O       2.82636802     4.67348302     2.68623501    -1.02066380     0.76572520    -3.33018018
