# total energy = -19071.29563887 eV

CRYSTAL
PRIMVEC
        5.17600016     0.00000000     0.00000000
        0.00000000     5.50899976     0.00000000
        0.00000000     0.00000000     9.26300011
PRIMCOORD
22 1
Ti      1.50514197     3.12640502     3.62024101     0.58253120    -0.75109536    -0.32908024
Ti      4.46768202     3.16652898     5.95145999    -0.60027208    -0.28134692    -1.25251054
Ti      4.04400303     2.20219399     1.30261102     1.49297665     0.06830729     2.25970433
Ti      1.58335998     2.73251601     8.20417803     0.73285826     0.03546555     1.91915002
Ti      1.50948700     0.55367001     1.38431499    -0.45373097    -0.80296996     0.41263239
Ti      3.09421098     5.25201102     8.16057699    -0.66015618    -1.54626484     0.17503871
Ti      1.51757399     0.15841101     5.68727000     1.18174064     1.46941634    -1.17343392
Ti      4.03423298     4.88413599     3.40273698    -1.02040386     0.54928400     0.10208363
O       3.27627399     3.42610302     4.27952299    -1.19146147    -2.64307549     2.85884666
O       0.47280601     1.85940201     0.33565401     0.73594204     0.11353533    -0.67163050
O       0.12863399     3.50540600     7.63472298    -2.61763519     1.13249937    -1.67891119
O       3.08463801     1.07896998     0.18731298     0.14135930     1.06221001     0.17136383
O       1.80005701     4.53629599     0.04856799     0.27504335    -0.45906730    -0.19077824
O       2.88904500     0.40016701     4.53473200    -0.23932171     1.01495312     1.74354181
O       0.32221201     4.34919500     4.86947699     0.88463671     2.18717579    -0.01413490
O       4.91489299     3.31345298     2.58553501     0.97213601     1.05324740    -1.13920558
O       0.71563402     1.98746000     5.13031698    -0.22737508    -0.51651939     0.20906727
O       2.43969202     1.81887000     2.40883601    -1.18317275     0.90008596    -0.10334862
O       2.70824503     4.37376200     6.53587102     0.53878567    -1.40059791     0.83696792
O       4.84126300     0.78847299     2.42814098     1.35170708    -1.13595622    -0.98894717
O       1.77775102     1.01125698     7.44494298     0.09797655    -0.26738814    -1.80743657
O       2.25979398     4.64358599     2.58664898    -0.79416392     0.21810085    -1.33897883
