# total energy = -39040.32229056 eV

CRYSTAL
PRIMVEC
        7.60629642    -0.00000847    -0.00005503
       -0.00000847     7.60629642    -0.00005503
       -3.80314186    -3.80314186     9.70738094
PRIMCOORD
46 1
Ti      1.91059089     4.75355039     6.06614404    -0.01987309    -0.06002371     0.05768863
Ti      3.80305056     6.64298289     1.21285134     0.00010670     0.05671881    -0.06274343
Ti      1.80499408     0.95878504     6.01939259     0.15188001     0.01370347     0.05571454
Ti      3.80293170     2.86221883     1.21233427     0.00006556    -0.05610098    -0.05106213
Ti     -1.91094426     4.75353412     6.06614669     0.01991397    -0.06016384     0.05804807
Ti     -0.00008521     6.68704167     1.35281181     0.00035661    -0.07822970    -0.05209263
Ti     -1.80504217     0.95876426     6.01955036    -0.15135833     0.01370784     0.05510622
Ti     -0.00019114     2.82117276     1.17934260    -0.00017895    -0.13787417    -0.09773718
Ti      3.80317077     0.87958935     8.59736080    -0.00047360     0.13409568    -0.05158766
Ti      5.71169193     2.85538461     3.62447161    -0.04103251     0.01890379     0.00379983
Ti      3.80324370    -2.78705285     8.46469974     0.00011956    -0.12801964     0.04902273
Ti      5.67795370    -0.95499872     3.64456662     0.00687282    -0.02016671     0.10285856
Ti      0.00015785     0.96774905     8.47021577     0.00037075    -0.06792523    -0.16472267
Ti      1.89493732     2.85544615     3.62447346     0.04086436     0.01893952     0.00379881
Ti      0.00011031    -2.85893630     8.50455034    -0.00034196    -0.00701809    -0.04988662
Ti      1.92859699    -0.95497918     3.64456860    -0.00760378    -0.02005178     0.10274723
O       1.97634090     2.83016132     5.66482587     0.03466028     0.05848028    -0.14631356
O       3.80318839     4.75360633     0.78281998    -0.00009179    -0.01803989    -0.04292844
O       1.99581224    -0.92659128     5.69112556     0.09599886    -0.05194427    -0.03092524
O       3.80318419     0.94978280     0.77350272    -0.00008048     0.02150831    -0.02377783
O      -1.97630079     2.83016569     5.66483640    -0.03488654     0.05799460    -0.14616058
O       0.00008117     4.85266081     0.77171812    -0.00001877    -0.07171941     0.24169767
O      -1.99577484    -0.92658666     5.69114738    -0.09612510    -0.05179438    -0.03065142
O       0.00010176     0.86166640     0.73871776     0.00003522     0.12026314     0.23320480
O       5.71419759     4.75497420     4.08384785     0.02616433    -0.02864030    -0.00240758
O       3.80309928    -0.95814186     8.91909460    -0.00008690     0.07412493    -0.04456212
O       5.67215739     0.95129810     4.04982896     0.02572518     0.02922883    -0.03989994
O      -0.00000859     2.83001393     8.88685486     0.00002725     0.09826554     0.09191671
O       1.89197870     4.75498443     4.08387271    -0.02606585    -0.02850480    -0.00242069
O      -0.00003300    -0.93087320     8.87061854    -0.00002623    -0.05087829    -0.03053418
O       1.93407164     0.95130613     4.04984692    -0.02531458     0.02924220    -0.04031157
O       2.02679429     1.03608822     8.02216931    -0.09834319     0.15105957     0.04008248
O       3.80314516     2.86209006     3.18877992     0.00013550     0.05613106    -0.08989248
O       1.92101522    -2.93396282     8.09924947    -0.06570765    -0.06583441    -0.06932159
O       3.80316195    -0.95948557     3.21575016     0.00001440    -0.05798174     0.04381676
O      -2.02686327     1.03609635     8.02214672     0.09851725     0.15124237     0.03996910
O       0.00000628     2.84270364     3.22571718    -0.00000000    -0.03183695     0.03672591
O      -1.92097235    -2.93395837     8.09927461     0.06543640    -0.06581898    -0.06945195
O      -0.00000072    -0.93931248     3.28987675    -0.00004499     0.04465776     0.07499217
O       3.80313293     4.71991588     6.47400220    -0.00014527     0.02237709     0.05808896
O       5.69402570     6.65588252     1.64925080    -0.04834961     0.00371756     0.10205844
O       5.72559993     2.85412473     1.60791609    -0.09629505     0.00060575     0.01258761
O      -0.00000141     4.76423387     6.48979268    -0.00010259     0.04682546    -0.04762250
O       1.91225328     6.65588460     1.64925202     0.04871445     0.00366871     0.10215922
O      -0.00001657     0.93928162     6.50071805     0.00033630    -0.06758199    -0.19155034
O       1.88070791     2.85414237     1.60796518     0.09623077     0.00068648     0.01247963
