# total energy = -19518.01572874 eV

CRYSTAL
PRIMVEC
        5.17600016     0.00000000     0.00000000
        0.00000000     5.50899976     0.00000000
        0.00000000     0.00000000     9.26300011
PRIMCOORD
23 1
Ti      1.89822902     3.23272398     3.42632702    -0.42124970     0.39864815     1.64751158
Ti      3.26516402     2.18232402     5.82645298     1.40446048     0.52859998    -2.28753113
Ti      4.36227801     2.09762899     1.53186500     2.94200568    -1.47004883    -0.53204449
Ti      0.84058002     3.33912898     7.81962799    -1.06225732     0.92975804     0.67064243
Ti      2.00714301     0.32773302     1.33882400    -0.25653088    -0.68015603    -1.16685729
Ti      3.23240398     5.13744499     7.94713901    -0.28367583    -0.18457725     0.82331099
Ti      0.70934898     0.60225202     5.85248501    -1.08696178    -0.43701751    -2.15840951
Ti      4.53119800     4.89371198     3.41031501     0.19476242     1.18105699     2.26482879
O       1.66670598     1.92949397     4.70728300    -0.12662739    -0.59536744     0.61175566
O       3.46526700     3.58772201     4.47241900     0.48377329     0.16536570     0.52702312
O       0.15728799     2.48403199     0.03825100     0.62355985     0.75677236    -0.80092644
O       3.56088499     0.67213200     0.18849299    -0.05946835     0.63249727     0.46559173
O       1.57282999     4.79395398     9.01320902     0.48313026    -0.30541786     0.68229210
O       4.35296703     0.87168601     4.65835802    -1.19186462     0.13744506     0.54335632
O       0.95740801     4.77586903     4.43663402     0.66449055    -0.71255168     0.82149425
O       0.10873698     3.36305398     2.61277701     0.58654213    -0.50012320    -1.17623617
O       5.07619500     2.24705700     6.59563201    -0.42729076    -0.14499613     0.52678915
O       2.71069501     1.90304099     2.27160400    -1.11978629     0.76680198    -0.33515216
O       2.52745299     3.52987298     6.98856602     0.13585586    -0.67570364     0.86640424
O       0.37992598     0.73718503     2.20571402    -1.33152006    -0.25016972    -0.64152827
O       4.93650898     4.85004899     7.21130302     0.62822435    -0.06000186    -0.23399850
O       2.41417599     0.74458001     6.82468601    -0.38197351     0.66119542     0.00045689
O       2.86440899     4.67231401     2.41786197    -0.39759837    -0.14200979    -1.11877379
