# total energy = -4984.99960365 eV

CRYSTAL
PRIMVEC
        3.25756051     0.00000000     0.00000000
        0.00000000     3.40273929     0.00000000
        0.00000000    -0.00005947     4.43064972
PRIMCOORD
6 1
Ti      1.62878011     1.70133986     2.21532481     0.00000000     0.00000000     0.00000000
Ti      0.00000000     0.00000000     0.00000000     0.00000000     0.00000000     0.00000000
O       1.62878011     0.66313217     0.86346835     0.00000000    -1.90029071    -2.08636177
O       1.62878011     2.73954755     3.56718122     0.00000000     1.90029071     2.08636177
O       0.00000000     1.03818389     3.07879413    -0.00000000     1.89895991    -2.08399096
O       0.00000000     2.36449582     1.35185549    -0.00000000    -1.89895991     2.08399096
