# total energy = -19075.66891023 eV

CRYSTAL
PRIMVEC
        7.60600008     0.00000000     0.00000000
        0.00000000     7.60600008     0.00000000
       -1.89786986    -1.89786986     4.85670466
PRIMCOORD
22 1
Ti      3.85241202     6.59739502     1.19243002    -0.20515251     0.02774556     0.43243606
Ti      3.80091000     2.85486798     1.16847999     1.00465482    -0.12753679    -0.56003481
Ti      0.29571901     6.70177698     1.00063603    -0.20849186    -0.52114044     1.09201168
Ti      0.00256900     2.81597202     1.25161897    -1.49886371     0.65297097    -0.98534146
Ti      5.61308321     2.95404225     3.59384083     0.92717563    -0.84663373     0.32245631
Ti      5.92949723    -0.83232078     3.61191080     0.70180729    -0.12807852     0.55449048
Ti      1.88991924     2.77560622     3.55693283    -0.76850148    -0.74373352     1.40477261
Ti      1.42872121    -1.10059576     3.91143179    -0.36511093     1.07163697    -1.15933861
O       3.91847800     4.70303000     0.65501301    -0.63402579    -0.45219062     1.08710421
O       4.16614200     0.89140802     0.72814001    -0.98736234     0.57702518     1.64890023
O      -0.06103499     4.84558802     0.74232201     0.66793840    -0.26479673     0.24643724
O      -0.16567301     0.89348203     0.69056298     0.28691799     1.40792376     1.16712186
O       5.71355820     4.82123121     3.94572883     0.05586649     0.18375347    -0.51227758
O       5.58075323     0.99711223     4.03217179     0.54740195    -0.59561375     0.19288372
O       2.00715021     4.70479724     4.20583580    -0.42362900    -0.29530365    -2.11342393
O       1.63341724     0.79431125     4.01154483     0.27520584     1.38571559     0.80181090
O       3.81250523     2.81398925     3.17605079    -1.18442539    -0.01726882    -0.24102276
O      -0.02584179     2.81425923     3.25982579     0.24419318     0.25467738    -0.51779414
O       5.60206997     6.54739301     1.82275199     0.17203643     0.21985357    -0.16233360
O       5.69731003     3.00382402     1.60513901    -0.00024194    -0.43911219     0.01129100
O       1.98374898    -0.82928102     2.12753999     0.65079325    -1.04006201    -1.86278704
O       1.85512901     2.95278799     1.65482002     0.74181367    -0.30983193    -0.84736213
