# total energy = -19961.86851584 eV

CRYSTAL
PRIMVEC
        7.60600008     0.00000000     0.00000000
        0.00000000     7.60600008     0.00000000
       -1.89786986    -1.89786986     4.85670466
PRIMCOORD
24 1
Ti      3.76658598     6.60462998     1.24832802     0.15677590    -0.81759388    -0.26592981
Ti      3.74844398     2.77938201     1.23274899     0.23216813     0.88553505    -0.07799033
Ti      0.04170800     6.70957800     1.21293098    -0.25799796    -0.17182149    -0.20475836
Ti     -0.00897400     2.91476698     1.14780498    -0.01475480     0.15814759     0.37580440
Ti      5.72198022     2.96899320     3.61148180     0.33065273    -0.31253930    -0.05833192
Ti      5.71460724    -0.89663677     3.60359282     0.47281653     0.03176162     0.27497907
Ti      1.85787920     2.76952825     3.63488980    -0.25675226     0.18824827     0.23624127
Ti      1.89161922    -1.04765178     3.67928983    -0.41579664    -0.02419306    -0.21041530
O       3.66059802     4.74219499     0.77210099     0.50535308    -0.72412911     0.00350544
O       3.72051798     0.90598500     0.91046502     0.42501611    -0.18599933    -0.73073247
O       0.09394701     4.77623802     0.79854302    -0.27933915     0.59985196    -0.46662840
O       0.09907098     1.02662202     0.75854400    -0.52720876    -0.85716420    -0.04381444
O       5.98508222     4.78974522     4.05911982    -1.09219500     0.19536817     0.40456657
O       5.72831023     1.00622922     4.01162283    -0.40311801    -0.28030974    -0.09553400
O       1.69280521     4.66506725     4.11769683     0.74503912     1.39606814    -0.12691741
O       1.95916420     0.87974522     4.02348783    -0.02189887    -0.13794925     0.45336022
O       3.75776825     2.87090120     3.16245982     0.82053008     0.19076204     0.70529063
O       3.81684321    -1.17094178     3.22785581    -0.23513570     0.29295649     0.27554317
O      -0.03019279     2.88481322     3.21081784     0.80274833    -0.67656265    -0.36574265
O      -0.01433578    -0.91486576     3.22566279     0.49316579     0.24858489    -0.09332208
O       5.74126502     6.60386802     1.59517699    -0.59867928     0.34085076    -0.00767886
O       5.75447900     3.03089302     1.62787898    -0.92704836    -0.50209395    -0.18766669
O       1.86026701     6.59472701     1.70878499     0.80475636     0.21787073     0.25952751
O       1.92445298     2.85315101     1.62525902    -0.75909689    -0.05564975    -0.05335555
