# total energy = -19889.62055032 eV

CRYSTAL
PRIMVEC
        8.77290050     0.00000000     0.00000000
        0.00002727     3.11233970     0.00000000
        0.00000000     0.00000000    13.95694475
PRIMCOORD
24 1
Ti      3.17977043     1.84436952     5.17792708     0.05155115     0.19323442     1.99418589
Ti      5.59315698     1.26796988     8.77901809    -0.05155115    -0.19323442    -1.99418589
Ti      7.56607104     1.26797088     1.80048975     0.04670488    -0.19302178    -1.99371512
Ti      1.20685643     1.84436863    12.15645554    -0.04670488     0.19302178     1.99371512
Ti      3.17975716     0.28819973     1.80054572     0.05189619     0.19401757    -1.99313199
Ti      5.59317031     2.82413979    12.15639957    -0.05189619    -0.19401757     1.99313199
Ti      1.20684309     0.28819867     8.77896212    -0.04645805     0.19428008    -1.99465794
Ti      7.56608438     2.82414085     5.17798305     0.04645805    -0.19428008     1.99465794
O       2.77668786     1.09590762     7.12212224     2.18118178     0.32902548    -1.40020350
O       5.99623961     2.01643184     6.83482293    -2.18118178    -0.32902548     1.40020350
O       1.60983261     1.09592026     0.14369459    -2.18042819     0.32904322    -1.40027601
O       7.16309492     2.01641920    13.81325015     2.18042819    -0.32904322     1.40027601
O       5.99622627     0.46026193     0.14364927    -2.18278897    -0.32887096    -1.40024130
O       2.77670120     2.65207747    13.81329548     2.18278897     0.32887096     1.40024130
O       7.16308158     0.46024935     7.12216751     2.17900225    -0.32863519    -1.39980961
O       1.60984577     2.65209010     6.83477766    -2.17900225     0.32863519     1.39980961
O       0.31875614     1.89310143     3.77011904    -1.14673917     0.45580097     1.64127023
O       8.45417133     1.21923797    10.18682607     1.14673917    -0.45580097    -1.64127023
O       4.70521799     1.21920912     3.20839788    -1.14745446    -0.45585984    -1.64388504
O       4.06770948     1.89313034    10.74854704     1.14745446     0.45585984     1.64388504
O       0.31874280     0.33693158     3.20835334    -1.14685359     0.45587090    -1.64406142
O       8.45418467     2.77540788    10.74859159     1.14685359    -0.45587090     1.64406142
O       4.06769620     0.33696043    10.18687056     1.14738632     0.45598763    -1.64179499
O       4.70523127     2.77537897     3.77007449    -1.14738632    -0.45598763     1.64179499
