# total energy = -4990.64925290 eV

CRYSTAL
PRIMVEC
        3.80314821     0.00000000     0.00000000
       -0.00000847     3.80314821     0.00000000
       -1.90160393    -1.90160817     4.85366295
PRIMCOORD
6 1
Ti     -0.00016748     2.85250521     1.21341561    -0.00002854     0.00002854     0.00000000
Ti      1.90170319    -0.95096527     3.64024703     0.00002854    -0.00002854     0.00000000
O       0.00003799     0.95078059     0.79062198     0.00004782     0.00007559     0.00080064
O       1.90149761     0.95075924     4.06304071    -0.00004782    -0.00007559    -0.00080064
O      -0.00002148    -0.95076408     3.21745340     0.00007559     0.00004782     0.00080064
O       1.90155703     2.85230386     1.63620928    -0.00007559    -0.00004782    -0.00080064
