# total energy = -39040.37726425 eV

CRYSTAL
PRIMVEC
        7.60629642    -0.00000847    -0.00005503
       -0.00000847     7.60629642    -0.00005503
       -3.80314186    -3.80314186     9.70738094
PRIMCOORD
46 1
Ti      1.89050246     4.83127568     6.10954646     0.03047581    -0.03774792     0.01240815
Ti      3.79206446     6.73294049     1.25589780     0.03074372    -0.03826677     0.01200963
Ti      1.93101151     0.86719132     6.08947705    -0.06500291     0.06430923    -0.15510443
Ti      3.83258201     2.76880379     1.23576509    -0.06496023     0.06419507    -0.15567933
Ti     -1.88937632     4.74335452     6.06798503    -0.04120503     0.03223239     0.00365354
Ti      0.01220007     6.64494414     1.21428283    -0.04124591     0.03210898     0.00380523
Ti     -1.92472156     0.96179659     6.04907609     0.00601253    -0.04743121    -0.12879123
Ti     -0.02313252     2.86335031     1.19539606     0.00596548    -0.04728929    -0.12928489
Ti      3.80575499     0.95660639     8.50249078     0.00499823     0.01961187     0.02329317
Ti      5.70733234     2.85819528     3.64873172     0.00489744     0.01924369     0.02398120
Ti      3.80823095    -2.85842631     8.49635691     0.01645250    -0.02387424     0.03784408
Ti      5.70980340    -0.95688393     3.64266171     0.01644118    -0.02348498     0.03796415
Ti     -0.00246805     0.95834288     8.36447142    -0.01983375     0.05255414     0.09309994
Ti      1.89910543     2.85981598     3.51074943    -0.01979982     0.05332187     0.09385044
Ti      0.00048055    -2.85575496     8.53821060    -0.03085556    -0.03428336     0.21047907
Ti      1.90204584    -0.95406505     3.68453345    -0.03093321    -0.03514956     0.21029703
O       1.89553460    -0.95290149     5.64819516     0.00043349    -0.00449095     0.16857290
O       3.79712342     0.94869738     0.79449126     0.00029671    -0.00335452     0.16971627
O      -1.90173983     2.85188230     5.63955646    -0.00176918     0.02831506    -0.10420556
O      -0.00016416     4.75348760     0.78586226    -0.00184914     0.02775044    -0.10365920
O      -1.90081125    -0.94921418     5.66349443     0.00731325    -0.02608925     0.01285758
O       0.00074989     0.95232863     0.80981744     0.00745029    -0.02553929     0.01345227
O       3.81256674     2.85350898     8.92579820     0.05556850     0.02505875     0.02424577
O       5.71413883     4.75506821     4.07208891     0.05552608     0.02519862     0.02396012
O       3.78785925    -0.95237219     8.89433518    -0.02706576    -0.01711841    -0.06623550
O       5.68942558     0.94921158     4.04063059    -0.02710535    -0.01738015    -0.06681245
O      -0.00858986     2.74929364     8.99957326    -0.05189311     0.00602564    -0.11640674
O       1.89298303     4.65070178     4.14588595    -0.05181957     0.00744952    -0.11625016
O       0.01647303    -0.84840498     8.96763055     0.01363816    -0.05864714    -0.21841041
O       1.91805125     1.05301645     4.11388414     0.01371350    -0.05848413    -0.21952601
O       1.91277969     0.98699136     8.07191024     0.02421877    -0.00615445    -0.08063008
O       3.81435884     2.88860499     3.21821410     0.02412827    -0.00658871    -0.08175854
O       1.87857991    -2.88622470     8.11792325     0.08442375     0.02361636    -0.00393122
O       3.78014164    -0.98469551     3.26416242     0.08435690     0.02378657    -0.00372450
O      -1.91736935     0.93986255     8.03426000     0.00662599    -0.02847601    -0.05018975
O      -0.01579345     2.84145023     3.18051501     0.00659385    -0.02888713    -0.05016584
O      -1.87996463    -2.84250218     8.08096753    -0.08685575     0.02455970     0.01335791
O       0.02160833    -0.94099128     3.22726909    -0.08671871     0.02469340     0.01279484
O       3.78081656     4.66891622     6.48345047     0.02648083    -0.04984214     0.13881520
O       5.68233173     6.57051534     1.62976208     0.02754552    -0.04999538     0.13913813
O       3.78200709     1.03787552     6.45229350     0.04827274     0.08028015    -0.02349269
O       5.68362437     2.93946013     1.59859318     0.04697716     0.08028093    -0.02319907
O       0.01891135     4.66567780     6.47169938    -0.01699885    -0.06998314     0.13254556
O       1.92053365     6.56724929     1.61800139    -0.01817334    -0.06985407     0.13303535
O       0.02079657     1.03982638     6.41874581     0.01658696     0.04702164     0.07602652
O       1.92231688     2.94140514     1.56503906     0.01794811     0.04679847     0.07625278
