# total energy = -19959.34069688 eV

CRYSTAL
PRIMVEC
        7.60600008     0.00000000     0.00000000
        0.00000000     7.60600008     0.00000000
       -1.89786986    -1.89786986     4.85670466
PRIMCOORD
24 1
Ti      3.75573398     6.61506800     1.17007001    -0.72880414     1.64955047     0.04936366
Ti      3.99102497     2.95607799     1.15041499     0.00139894    -2.12214151     0.05400681
Ti     -0.19067002     6.70952900     1.26857201     1.51401857    -0.28528303     0.55557806
Ti      0.04813603     2.89969299     1.36512099    -0.79314165    -1.23559499    -2.82689375
Ti      5.77114121     2.76177422     3.78866479    -1.34524898    -1.18998952    -0.94576522
Ti      5.54968423    -1.06148278     3.67887183     1.14267863     1.14072742     0.39296241
Ti      1.98628422     2.92695224     3.57661680     1.16266459    -1.23058802    -0.82395042
Ti      1.90009622    -0.94576077     3.58595381    -1.20350633     1.00468310     0.66794122
O       3.90490000     4.78669800     0.83011501    -0.70174944     1.45716169    -1.47838924
O       3.83040200     1.03354402     0.71667200    -0.18423195    -2.24120755     0.44232478
O      -0.19461398     4.67395002     0.97242601     1.36712933     1.88910512    -2.43793918
O       7.19451000     0.95686899     0.82625900     1.27700391     0.41838909    -0.89225823
O       5.69209620     4.66832121     4.07331881     0.08364290     0.49225562     0.52578693
O       5.77374423     0.89816122     3.82491581     0.25992269     0.35512759     1.58035074
O       2.05357323     4.76975322     3.92873383    -0.34599220    -1.60907923     1.14120950
O       1.92486621     0.88509023     4.02290981     0.24679308     2.14375601    -0.43785775
O       3.97814522     2.56984623     3.02505583    -1.17237103     0.87165572     1.89527860
O       3.75662723    -1.05456676     3.07970682     0.50088065     0.16843097     0.83862449
O       0.10131421     2.68601122     3.10617679    -1.12122919     0.23137135     3.46520351
O       0.00291122    -0.98945377     3.17981879    -1.10082748    -0.25404103     0.76504154
O       5.66520701     6.76792202     1.75420999    -1.34421257    -0.82883758    -1.04059448
O       5.73661901     3.24489198     1.51308799     0.08926796    -1.69142887     0.94774600
O       1.79736201     6.48616498     1.67844303     1.30027086     0.77241727    -2.01895205
O       1.90626801     2.98387800     1.66570102     1.09564311     0.09355991    -0.41881769
