# total energy = -39032.76587008 eV

CRYSTAL
PRIMVEC
        7.60600008     0.00000000     0.00000000
        0.00000000     7.60600008     0.00000000
       -3.79573973    -3.79573973     9.71340985
PRIMCOORD
46 1
Ti      1.64548047     4.91195045     5.93441863    -0.43268237     1.95820046     1.87889912
Ti      3.75945600     6.75192298     1.28998300     0.47159166     1.15319907     0.97830897
Ti      1.91792642     1.08203243     6.13010261    -0.17870973    -1.84301577    -0.08222751
Ti      3.99811801     2.76035703     1.22327598     1.15233467     0.60468641    -1.63089479
Ti     -2.16907056     4.88329047     6.02169764     1.19731151    -0.99647022     0.88247389
Ti     -0.05389099     6.60375599     1.20387300    -0.85540762     1.61803233    -0.81560539
Ti     -1.94144756     0.92788246     6.18445864    -0.27894166     0.91324847    -2.20760784
Ti      0.17489398     2.84561701     1.23272899    -0.98770456    -1.02988532     0.66429848
Ti      3.77037944     0.83930544     8.45773664    -0.70304477     2.10247668     0.05973163
Ti      5.93190801     2.76767602     3.76213999     1.00746658    -1.02844293    -0.68685761
Ti      3.74926347    -2.89565357     8.42822463    -0.03747153    -1.41985651     0.89742358
Ti      5.71245000    -0.98378999     3.65582400     0.11313629     0.67130629     0.00903563
Ti     -0.08749353     0.85538947     8.38056063     0.81309882    -1.25275402     0.12893856
Ti      2.28375401     2.98716800     3.50443998    -1.63119587    -0.11355204    -0.34082556
Ti     -0.11657256    -3.11951354     8.45802964     0.60495972     2.24596486    -0.43230699
Ti      1.83065499    -0.78735299     3.56409101    -0.08771784     0.39287319     1.59349808
O       1.62331244    -0.79806354     5.85181761     0.70381096    -0.86393546    -2.25923818
O       3.82661701     1.02156499     0.99911898     0.16191425    -2.90330079    -1.64754166
O      -2.08254458     2.83097943     5.95168860     0.46891077    -0.19457370    -1.78317949
O      -0.21838198     4.89329700     0.77622000     0.70399787    -3.05839982     0.23006162
O      -1.57548053    -0.93460958     5.61039462    -1.50906894    -0.58186040    -0.12151038
O      -0.11310301     0.84253601     0.60890299     0.06196747     1.17238491    -0.55129589
O       4.10433045     2.68843644     8.62943365    -1.33239526     2.35902633     0.96912936
O       5.71693800     4.64063201     4.16229298     0.16910177     0.52588412    -1.00914937
O       3.95621347    -0.90894956     9.02623663    -0.14182982    -1.21953639    -0.12091183
O       5.61122501     0.89629100     4.07118400     0.03419209     0.43479582     0.24793928
O      -0.18937957     2.61778244     9.18299062    -0.18582964     0.55217880    -1.47694479
O       1.60480399     4.55582099     4.10876400     0.45467817     2.30231575     0.29074302
O      -0.15909153    -0.95659853     8.90623865     0.62450731     0.48338146     0.38207944
O       2.33027600     1.40970602     4.22534900    -0.31930002    -3.84805429     1.73352941
O       1.94087742     1.05023946     8.09558561    -1.66450735     0.21258917     0.01334274
O       4.07514701     2.80326600     3.08171801     1.02968169     1.26417513     1.37235587
O       1.78627744    -2.98464753     7.96441162    -0.39873968    -0.51588870     0.66088920
O       3.68946501    -1.21545802     3.15436600    -0.35663400    -0.08017628     0.92056377
O      -1.97439456     0.92829744     7.99905262     1.71498532    -0.75631367     1.29519036
O       0.31598899     2.43698702     3.28112999    -2.42845180     1.17419240    -0.72315260
O      -2.00279756    -2.74302256     8.02163463     0.07468749    -0.45624551     0.20216489
O      -0.03125898    -0.92616401     3.19256498    -0.04386252    -0.29309276     0.84045923
O       3.63018144     5.06506445     6.35922462     0.10133236    -0.49783826    -0.04945082
O       5.69552098     6.84731099     1.70738802    -1.45735761    -0.71304688    -0.23856812
O       3.75259845     0.78383047     6.47882365     0.07261235    -0.26415652    -0.27766819
O       5.98728402     2.72007701     1.68883501    -0.43778138     0.78097133     0.11262927
O      -0.17136453     4.71870846     6.46524565     1.07622562    -1.03591867     0.56307334
O       1.66991401    -0.61327701     1.59500701     3.63374762    -0.68859028     0.85170061
O      -0.01963856     0.88513447     6.44395960     0.31900203     1.52877645     0.59319923
O       2.14720802     2.79158600     1.68070103    -1.29662040     1.20424526    -1.91672161
