# total energy = -4980.31158610 eV

CRYSTAL
PRIMVEC
        5.22932879     0.00000000     0.00000000
       -0.00000792     3.13759727     0.00000000
       -2.61469385    -1.56885587     5.69496461
PRIMCOORD
6 1
Ti     -0.00022415     2.35330948     1.42374077    -0.00498254    -0.00903435    10.12567032
Ti      2.61485100    -0.78456820     4.27122313     0.00498254     0.00903435   -10.12567032
O       0.00005538     0.78438924     0.92766308     0.00331570     0.00365714    -4.80755435
O       2.61457135     0.78435198     4.76730089    -0.00331570    -0.00365714     4.80755435
O      -0.00002154    -0.78439968     3.77514538    -0.00245669    -0.00012161    -2.40144261
O       2.61464822     2.35314085     1.91981853     0.00245669     0.00012161     2.40144261
