# total energy = -19517.90397984 eV

CRYSTAL
PRIMVEC
        5.93400000     0.00000000     0.00000000
        0.00000000     9.29699974     0.00000000
        0.00000000     0.00000000     4.64899994
PRIMCOORD
23 1
Ti      4.40671302     6.98780601     2.19796099     0.84663733     0.37047065    -0.41770440
Ti      4.54248403     2.34123002     2.35651800     0.01912619    -0.08787237    -0.19280530
Ti      1.42248502     6.99064298     2.31009402    -1.09279664     0.53085432    -0.26082771
Ti      1.50342400     2.34489002     2.36166600    -0.05621796    -0.51950470    -0.34634778
Ti      2.94519102     4.50644102     0.13561400     0.27931729    -0.13599701     0.79699342
Ti      2.93748302     0.15859199     4.61761502    -0.42469061    -0.40915651     0.19185682
Ti      0.01846802     4.57924899     4.63193102    -0.56338856     0.96735350    -0.07100515
Ti      5.87261999     9.28421800     4.56391602     0.62065733    -0.26824458     0.34243482
O       4.31419199     5.51895300     0.96873198     0.45564593     0.15954164    -0.45001547
O       4.56993298     0.93643598     0.91871600    -0.84138379    -0.35985739    -0.12449029
O       1.51263100     5.52964699     0.94896203    -0.03378765     0.01483758    -0.30097679
O       1.50568401     1.08196501     0.89615601     0.72404966    -1.08335015    -0.41063438
O       4.58141099     8.46016202     3.56455399    -1.08851292    -0.19109371     0.58634415
O       4.42230501     3.48145300     3.85952998     0.17463813     1.95268955     0.64376899
O       1.58755001     8.40388798     3.69646401    -0.14761403    -0.07351609     0.11664817
O       1.45379897     3.73416398     3.81700001     0.54122179    -0.14322078    -0.50983041
O       3.02024502     1.45427301     3.18802300    -0.29572634    -1.03365919     0.78166630
O       5.86893300     6.00914799     3.25708597     0.07989680     0.11371351    -0.02175848
O       0.06182600     1.43758303     3.32471202     0.18851490     0.42732059    -1.08044403
O       2.88011301     7.82467798     1.33245101     0.70391714     0.00825222     0.69263797
O       3.00251399     3.29723402     1.54551000    -0.05261482    -0.06480237    -0.27223596
O       5.90400200     7.76243700     1.31794198     0.38926336     0.44807480    -0.01237318
O       0.06765002     3.36409302     1.50847902    -0.42615254    -0.62283326     0.31909870
