# total energy = -19956.04040080 eV

CRYSTAL
PRIMVEC
        5.49406108     0.00000000     0.00000000
        0.00002555     4.78418943     0.00000000
        0.00000000     0.00000000     9.02953306
PRIMCOORD
24 1
Ti      1.99134802     2.83510613     3.34989248    -0.31101567     1.15967928    -1.97477765
Ti      3.50273866     1.94908310     5.67964094     0.31101567    -1.15967928     1.97477765
Ti      4.73828337     1.94908464     1.16483815    -0.30781438    -1.16017499     1.97642933
Ti      0.75580331     2.83510473     7.86469537     0.30781438     1.16017499    -1.97642933
Ti      1.99133545     0.44301151     1.16487436    -0.31144607     1.15988626     1.97491469
Ti      3.50275123     4.34117786     7.86465917     0.31144607    -1.15988626    -1.97491469
Ti      0.75579074     0.44300976     5.67960474     0.30800336     1.15996699     1.97655017
Ti      4.73829594     4.34117956     3.34992869    -0.30800336    -1.15996699    -1.97655017
O       1.73891403     1.68459436     4.60770175     0.37034466    -1.11451553     1.15718660
O       3.75517265     3.09959487     4.42183168    -0.37034466     1.11451553    -1.15718660
O       1.00816661     1.68461369     0.09296412    -0.37069999    -1.11446462     1.15672586
O       4.48592012     3.09957559     8.93656905     0.37069999     1.11446462    -1.15672586
O       3.75516008     0.70750010     0.09293480    -0.37054778     1.11457363     1.15714623
O       1.73892660     4.07668912     8.93659836     0.37054778    -1.11457363    -1.15714623
O       4.48590750     0.70748082     4.60773106     0.37083909     1.11438954     1.15671429
O       1.00817907     4.07670845     4.42180237    -0.37083909    -1.11438954    -1.15671429
O       0.19962739     2.91001523     2.43910224     0.82439188    -0.35434031     0.46559507
O       5.29445929     1.87417399     6.59043118    -0.82439188     0.35434031    -0.46559507
O       2.94666342     1.87412953     2.07569320     0.82614563     0.35452260    -0.46602779
O       2.54742325     2.91005970     6.95384007    -0.82614563    -0.35452260     0.46602779
O       0.19961477     0.51792047     2.07566435     0.82474644    -0.35432283    -0.46566269
O       5.29447191     4.26626876     6.95386892    -0.82474644     0.35432283     0.46566269
O       2.54741063     0.51796493     6.59045999    -0.82615566    -0.35450666    -0.46587712
O       2.94667605     4.26622429     2.43907339     0.82615566     0.35450666     0.46587712
