# total energy = -19930.17323379 eV

CRYSTAL
PRIMVEC
        6.43993024     0.00000000     0.00000000
        0.00003205     6.20126799     0.00000000
        0.00000000     0.00000000    11.00471046
PRIMCOORD
24 1
Ti      2.33418400     3.67486561     4.08266919     0.19485961    -0.83263870     0.69568087
Ti      4.10577829     2.52640225     6.92204165    -0.19485961     0.83263870    -0.69568087
Ti      5.55403688     2.52640439     1.41964227     0.19509538     0.83243095    -0.69546824
Ti      0.88592547     3.67486379     9.58506876    -0.19509538    -0.83243095     0.69546824
Ti      2.33416804     0.57423174     1.41968642     0.19485961    -0.83263870    -0.69568087
Ti      4.10579432     5.62703631     9.58502461    -0.19485961     0.83263870     0.69568087
Ti      0.88590944     0.57422948     6.92199757    -0.19509538    -0.83243095    -0.69546824
Ti      5.55405285     5.62703863     4.08271334     0.19509538     0.83243095     0.69546824
O       2.03828989     2.18357180     5.61561966     1.15377860     1.30081310    -0.38334931
O       4.40167247     4.01769606     5.38909118    -1.15377860    -1.30081310     0.38334931
O       1.18173554     2.18359688     0.11329967    -1.15351223     1.30103936    -0.38404634
O       5.25822687     4.01767105    10.89141092     1.15351223    -1.30103936     0.38404634
O       4.40165644     0.91706200     0.11326399    -1.15377860    -1.30081310    -0.38334931
O       2.03830591     5.28420586    10.89144660     1.15377860     1.30081310     0.38334931
O       5.25821085     0.91703699     5.61565540     1.15351223    -1.30103936    -0.38404634
O       1.18175138     5.28423094     5.38905550    -1.15351223     1.30103936     0.38404634
O       0.23399716     3.77196274     2.97264691    -0.14290711    -0.12822199     0.14072141
O       6.20596519     2.42930518     8.03206393     0.14290711     0.12822199    -0.14072141
O       3.45396799     2.42924747     2.52974350    -0.14299581     0.12838243    -0.14091990
O       2.98599430     3.77202046     8.47496722     0.14299581    -0.12838243     0.14091990
O       0.23398114     0.67132869     2.52970832    -0.14290711    -0.12822199    -0.14072141
O       6.20598115     5.52993924     8.47500233     0.14290711     0.12822199     0.14072141
O       2.98597834     0.67138640     8.03209904     0.14299581    -0.12838243    -0.14091990
O       3.45398401     5.52988146     2.97261180    -0.14299581     0.12838243     0.14091990
