# total energy = -4987.07941787 eV

CRYSTAL
PRIMVEC
        3.42666855     0.00000000     0.00000000
        0.00000000     4.85773566     0.00000000
        0.00000000    -0.00006645     5.12622114
PRIMCOORD
6 1
Ti      1.71333427     2.42883443     2.56311057     0.00000000     0.00000000     0.00000000
Ti      0.00000000     0.00000000     0.00000000     0.00000000     0.00000000     0.00000000
O       1.71333427     0.94668811     0.99902499     0.00000000    -0.21665769    -0.28269855
O       1.71333427     3.91098069     4.12719610     0.00000000     0.21665769     0.28269855
O       0.00000000     1.48211940     3.56213660     0.00000000     0.21694359    -0.28230158
O       0.00000000     3.37554946     1.56408449     0.00000000    -0.21694359     0.28230158
