# total energy = -19960.68636300 eV

CRYSTAL
PRIMVEC
        7.60600008     0.00000000     0.00000000
        0.00000000     7.60600008     0.00000000
       -1.89786986    -1.89786986     4.85670466
PRIMCOORD
24 1
Ti      3.78757400     6.50541697     1.26262798     0.89897241    -0.34134441     0.27422805
Ti      3.77177102     2.77412802     1.20068699     0.54741378    -0.02397272     1.40368195
Ti      0.06971498     6.73334499     1.31608102    -1.22463360    -0.28609421    -1.99203002
Ti      0.01143600     2.93259200     1.11264899    -0.22008600     0.46045132    -0.66064880
Ti      5.70345324     3.05023122     3.59269082    -2.11761714    -0.21970136    -0.31330986
Ti      5.75167023    -0.87446980     3.66583979    -0.97595333    -0.06033739    -0.57062879
Ti      1.76008021     2.79122224     3.62471181     1.54749820    -0.42914042    -0.44058003
Ti      1.88588723    -1.00996976     3.67581483     0.94799411    -0.09756312     0.70827054
O       3.78031300     4.63093701     0.77863903    -0.39581711     0.56064082     0.25390682
O       3.78078698     0.85412097     0.75441297    -0.14823649    -1.17624337     0.46812838
O       0.21057302     4.95939399     0.61251198    -0.66776870    -1.99485772     2.19600445
O       0.06995602     1.01200498     0.73430598    -0.21674253     0.56307103     0.80289257
O       5.81681920     4.87105822     4.07795281     0.10937040     0.76293992    -0.35599688
O       5.76367822     1.14612723     3.96669182    -0.56331374    -2.07993915     0.95578481
O       1.84000423     4.52242821     4.14011479    -0.53702832     2.48041767    -0.31630571
O       1.93848824     0.85153023     4.11647681    -0.17087815    -0.07157260    -1.27549210
O       3.74180921     2.91930922     3.25278683    -0.40185895    -0.28577745    -0.35107835
O       3.83608521    -1.19837676     3.26698582    -0.90590360     0.91573961    -0.28303434
O      -0.15539576     2.87757323     3.01367179     2.97419488     0.14356428     0.76635178
O      -0.01357075    -0.79654977     3.22324080     1.13823705    -0.15788045     0.66976259
O       5.75398703     6.52617998     1.68134498    -0.63818635     0.36427300    -0.54281896
O       5.60540300     2.87960601     1.63369199     0.75012194     0.07008598    -1.48155170
O       1.87377399     6.42505098     1.71912400     1.28091636     0.74938943     0.10671882
O       1.88418899     2.76507999     1.62406599    -1.01069589     0.15385101    -0.02225496
