# total energy = -19934.73634804 eV

CRYSTAL
PRIMVEC
        5.03989474     0.00000000     0.00000000
        2.29750024     4.84702870     0.00000000
        0.00000000     0.00000000     9.26955749
PRIMCOORD
24 1
Ti      3.18821591     2.87234469     3.43893969     4.18256856    -4.40291527     1.27476036
Ti      4.14917891     1.97468394     5.83061784    -4.18256856     4.40291527    -1.27476036
Ti      5.28258806     1.97468558     1.19580205    -8.77477160     1.90448418     2.13139106
Ti      2.05480685     2.87234324     8.07375563     8.77477160    -1.90448418    -2.13139106
Ti      2.03946590     0.44883042     1.19583920     4.18291566    -4.40332330    -1.27515683
Ti      5.29792895     4.39819836     8.07371848    -4.18291566     4.40332330     1.27515683
Ti      0.90605672     0.44882863     5.83058069     8.77419464    -1.90465207     2.13119129
Ti      6.43133818     4.39820014     3.43897689    -8.77419464     1.90465207    -2.13119129
O       2.40414735     1.70672118     4.73018424    -0.79297530     0.55264366    -1.33309640
O       4.93324747     3.14030745     4.53937335     0.79297530    -0.55264366     1.33309640
O       1.73381647     1.70674076     0.09543530     1.88545827    -0.31779258    -1.34630108
O       5.60357841     3.14028796     9.17412203    -1.88545827     0.31779258     1.34630108
O       3.78449744     0.71679308     0.09540519     0.79297967    -0.55266371    -1.33300101
O       3.55289738     4.13023560     9.17415209    -0.79297967     0.55266371     1.33300101
O       4.45482838     0.71677354     4.73021430    -1.88579997     0.31791882    -1.34637461
O       2.88256640     4.13025516     4.53934324     1.88579997    -0.31791882     1.34637461
O       1.58058088     2.94823765     2.50393874     0.25091945    -2.41760509    -2.09190250
O       5.75681389     1.89879100     6.76561885    -0.25091945     2.41760509     2.09190250
O       3.60307726     1.89874589     2.13086951     2.38210739    -2.12356411    -3.31469159
O       3.73431755     2.94828274     7.13868787    -2.38210739     2.12356411     3.31469159
O       0.43183085     0.52472323     2.13083990     0.25096213    -2.41755778     2.09166879
O       6.90556392     4.32230542     7.13871748    -0.25096213     2.41755778    -2.09166879
O       2.58556752     0.52476832     6.76564836    -2.38219867     2.12349880    -3.31462629
O       4.75182730     4.32226031     2.50390913     2.38219867    -2.12349880     3.31462629
