# total energy = -4987.57951816 eV

CRYSTAL
PRIMVEC
        4.53905751     0.00000000     0.00000000
       -0.00000846     3.71377411     0.00000000
       -2.26955904    -1.85692950     5.31941825
PRIMCOORD
6 1
Ti     -0.00019701     2.78546900     1.32985471    -0.00143082    -0.00060627     2.92249254
Ti      2.26968702    -0.92862461     3.98956372     0.00143082     0.00060627    -2.92249254
O       0.00004682     0.92843571     0.86648983    -0.00010387     0.00025582    -0.65004351
O       2.26944307     0.92840856     4.45292865     0.00010387    -0.00025582     0.65004351
O      -0.00002196    -0.92842726     3.52619884    -0.00250580    -0.00018769    -1.73480596
O       2.26951174     2.78527154     1.79321958     0.00250580     0.00018769     1.73480596
