# total energy = -19960.53639855 eV

CRYSTAL
PRIMVEC
        5.93400000     0.00000000     0.00000000
        0.00000000     9.29699974     0.00000000
        0.00000000     0.00000000     4.64899994
PRIMCOORD
24 1
Ti      4.43118498     6.90929802     2.25462698    -0.90839345    -0.23695167     1.54045929
Ti      4.51534798     2.47188399     2.37537798    -0.01993634    -0.84070734    -0.56604220
Ti      1.44235398     6.98675401     2.20574598     0.83894047    -0.20969797     1.19200269
Ti      1.51913998     2.22802599     2.38919300    -0.30684019     0.14211135     0.56929593
Ti      2.97226902     4.61840202     0.02683902    -0.20108785     0.43531415    -0.47730825
Ti      2.92274099     9.24713601     0.00734397     1.88162167    -0.17612372    -0.41050454
Ti      0.00694000     4.72036500     4.62492503     0.10955912     0.06863125    -0.00892533
Ti      5.93256202     9.26867299     0.02598599    -2.35940609    -0.14317682    -0.62596281
O       4.39140598     5.62813502     0.81425900     0.59761664    -0.24789917     0.02622655
O       4.47330199     0.93807002     0.88931401    -0.38247539    -0.68140533    -0.19214761
O       1.51114602     5.67445301     0.89428902    -0.35931489    -1.03814268    -1.06864240
O       1.41315102     0.86973800     0.90515499     1.21339582     0.46500603     0.73000202
O       4.51336203     8.36588898     3.69368298    -0.79881248     0.42265378     0.77158937
O       4.45454101     3.74859898     3.81136099     0.18996089     0.00426083     0.06151804
O       1.49526398     8.35602999     3.62030303     0.21439846     0.94425778     1.45181173
O       1.46001300     3.66485800     3.92830498     0.07324793    -0.14313619    -0.95399893
O       2.95761102     5.98673802     3.07705500    -0.41251026    -0.22638700     0.97276362
O       3.00562200     1.43474500     3.27912203    -1.17076897     0.13552624    -0.56134402
O       5.92292998     6.01447802     3.24480102     0.39168483     0.12220586    -0.48798579
O       5.87385102     1.42929500     3.29555801     1.53221479     0.45151699    -0.81530020
O       3.02702997     7.90833201     1.49949899    -1.05200222     0.90671221    -1.43192913
O       3.10376999     3.42564099     1.53613901    -1.62460099    -1.12645085     0.09026067
O       5.81707898     7.77863998     1.35830000     1.51411756     0.90359012    -0.44871038
O       5.88727000     3.25758499     1.42899998     1.03939146     0.06829212     0.64287193
