# total energy = -19904.46984741 eV

CRYSTAL
PRIMVEC
        6.67699613     0.00000000     0.00000000
        2.73324015     6.55968803     0.00000000
        0.00000000     0.00000000    12.20653724
PRIMCOORD
24 1
Ti      4.03980559     3.88726517     4.52853825    -0.27615818    -2.04645027     0.47937619
Ti      5.37043080     2.67242304     7.67799912     0.27615818     2.04645027    -0.47937619
Ti      6.87200344     2.67242527     1.57468164    -0.03322355    -1.11023695     0.15743025
Ti      2.53823301     3.88726321    10.63185581     0.03322355     1.11023695    -0.15743025
Ti      2.67318565     0.60742113     1.57473057    -0.27615818    -2.04645027    -0.47937619
Ti      6.73705078     5.95226728    10.63180687     0.27615818     2.04645027     0.47937619
Ti      1.17161291     0.60741872     7.67795012     0.03322355     1.11023695     0.15743025
Ti      8.23862352     5.95226969     4.52858719    -0.03322355    -1.11023695    -0.15743025
O       3.07573174     2.30977774     6.22890254     1.79758898     2.02397804    -0.76772115
O       6.33450458     4.24991049     5.97763484    -1.79758898    -2.02397804     0.76772115
O       2.18765706     2.30980424     0.12567315    -0.25829569    -0.72393164     1.55228483
O       7.22257942     4.24988409    12.08086383     0.25829569     0.72393164    -1.55228483
O       4.96788461     0.97006632     0.12563352    -1.79758898    -2.02397804    -0.76772115
O       4.44235177     5.58962189    12.08090346     1.79758898     2.02397804     0.76772115
O       5.85595937     0.97003987     6.22894210     0.25829569     0.72393164     1.55228483
O       3.55427690     5.58964844     5.97759521    -0.25829569    -0.72393164    -1.55228483
O       1.90510234     3.98997430     3.29729026     0.61841765     2.67802117     2.55357973
O       7.50513398     2.56971392     8.90924712    -0.61841765    -2.67802117    -2.55357973
O       4.65180514     2.56965288     2.80601726     0.56530789     2.09660659     1.60655955
O       4.75843119     3.99003535     9.40051992    -0.56530789    -2.09660659    -1.60655955
O       0.53848236     0.71013006     2.80597823     0.61841765     2.67802117    -2.55357973
O       8.87175403     5.84955815     9.40055888    -0.61841765    -2.67802117     2.55357973
O       3.39181122     0.71019117     8.90928601    -0.56530789    -2.09660659     1.60655955
O       6.01842511     5.84949705     3.29725130     0.56530789     2.09660659    -1.60655955
