# total energy = -4986.99545357 eV

CRYSTAL
PRIMVEC
        4.20432728     0.00000000     0.00000000
        0.83253131     4.12107504     0.00000000
       -2.51846760    -2.06056886     5.39295860
PRIMCOORD
6 1
Ti      0.62425356     3.09096388     1.34823980    -0.00103795     0.00103795     0.00000000
Ti      1.89413744    -1.03045769     4.04471898     0.00103795    -0.00103795     0.00000000
O       0.20817688     1.03026274     0.87846895    -0.00059495    -0.00159331    -1.19524614
O       2.31021399     1.03024335     4.51448988     0.00059495     0.00159331     1.19524614
O      -0.20814929    -1.03024016     3.57494813    -0.00159331    -0.00059495    -1.19524614
O       2.72654003     3.09074614     1.81801064     0.00159331     0.00059495     1.19524614
