# total energy = -4974.76746102 eV

CRYSTAL
PRIMVEC
        5.43850171     0.00000000     0.00000000
       -0.00000770     2.92842436     0.00000000
       -2.71928105    -1.46427807     5.86706506
PRIMCOORD
6 1
Ti     -0.00023278     2.19641917     1.46676603    -0.00814294    -0.00960950    15.09716804
Ti      2.71944533    -0.73227271     4.40029856     0.00814294     0.00960950   -15.09716804
O       0.00005773     0.73209462     0.95569689     0.00607192     0.01004685    -9.43365919
O       2.71915470     0.73205172     4.91136782    -0.00607192    -0.01004685     9.43365919
O      -0.00002221    -0.73211447     3.88922942    -0.00212836    -0.00011364    -2.22760640
O       2.71923453     2.19626082     1.97783529     0.00212836     0.00011364     2.22760640
