# total energy = -39035.94550825 eV

CRYSTAL
PRIMVEC
        7.60600008     0.00000000     0.00000000
        0.00000000     7.60600008     0.00000000
       -3.79573973    -3.79573973     9.71340985
PRIMCOORD
46 1
Ti      1.93669544     5.13741446     6.05046461     0.28491510    -1.46872240     0.09156884
Ti      3.89580900     6.52225402     1.25620901    -1.06571211    -0.46545623     1.10182687
Ti      1.74060045     1.07121647     6.19639265     0.17743498    -0.59254360     0.11721381
Ti      3.82648398     2.37078499     1.33906499    -0.73868850     1.64662249     0.78889008
Ti     -1.85449056     4.78572643     5.93992361    -0.38398669     0.34862938     0.91870924
Ti      0.01998999     6.59120200     1.24526700     0.52449573    -1.31760884    -0.52555836
Ti     -1.95361456     1.08240143     6.03263965    -0.18576253    -0.46975641     0.24374118
Ti      0.06963200     2.73692199     1.21714800     0.30440587     0.91988783    -1.60761190
Ti      3.75296247     0.90087744     8.38272661     0.47816623    -0.99318487     1.33846589
Ti      5.72873299     3.02521500     3.47935899    -1.36755691    -1.54884726     0.80651088
Ti      3.79981143    -2.95922655     8.38332061     0.06577424     0.57864884    -0.03456721
Ti      5.80463998    -0.87589900     3.71877598    -1.30199118     1.01751574    -0.00452437
Ti     -0.05049155     0.77569643     8.49740165    -0.75995204    -0.87554348    -0.01414364
Ti      1.80212101     3.12408198     3.69458501     1.56123587     0.20680059    -0.80093750
Ti     -0.02746657    -3.02706453     8.38152464     0.11654661     0.16698730     0.96425815
Ti      1.91947400    -0.70244697     3.65596200     1.42445416    -0.98898343     0.37174360
O       1.84754945    -0.73158056     5.68532961     0.05541706     0.71210457    -1.15493277
O       4.03687702     0.68590198     0.86947299    -0.37131808    -0.22483071    -1.28070116
O      -1.78932857     2.93174844     5.72856763    -0.19286186    -0.59864200    -1.21910341
O       0.08176302     4.68398401     0.93197798    -0.01632677     0.39102431    -0.91601909
O      -1.87946153    -0.88042553     5.67241261    -0.04676993    -0.14919577    -0.77976626
O       0.16287002     0.85566702     0.59188899    -0.32344773    -0.62852028     0.96488755
O       3.52642142     2.71313743     8.72345061     0.08636442     1.31651381     0.98041882
O       5.61722302     4.82866298     3.97621801     0.35500931    -0.67579800     0.23524780
O       3.74332044    -1.03098953     8.86391563     0.64131461     0.09799660     0.42601730
O       5.74858698     1.03733500     4.03748499     0.29047717    -0.06715467    -0.05937399
O       0.03400747     2.57947646     8.95363462     0.06944758     1.05867654     0.15548752
O       2.07257800     4.95593698     3.95317001    -0.79504761    -0.38954438     1.35644794
O      -0.23229257    -1.09372354     9.22253360    -0.22918205     0.62860925    -1.08215587
O       1.79072301     1.37620900     4.36411298    -0.08650763    -0.88375842    -1.01302582
O       1.80247947     0.62014843     8.04884963    -0.17549303     0.49589708     1.30627207
O       3.78792399     2.79888298     3.32890998     1.10891540     0.42495183    -0.56738149
O       1.74983343    -2.63470854     8.07387961     1.41001715    -0.87402525    -0.69041165
O       3.81228901    -0.96406099     3.35107198     0.17284299     1.05178367    -0.68702550
O      -1.95605454     1.00100544     8.03684064     0.01069322    -0.29767652     0.55529935
O      -0.00839799     3.05203101     3.16565399    -0.61267971     0.02166489     0.57608956
O      -1.88505356     4.45752044     7.91493763    -0.25803884     0.57554397     0.67513466
O       0.08797699    -1.06549300     3.24494300    -1.19550016     0.94272746    -0.16540170
O       3.82863445     4.88118345     6.35323761    -0.99900945    -0.36734753     0.72176883
O       5.68870597     6.49205398     1.66521301     1.26044188    -0.12553184     0.24573148
O       3.73382747     0.93902847     6.54978960    -0.03967959     0.64965733    -1.59646488
O       5.74180103     2.60720302     1.54144999    -0.15677513     0.67642972     0.92386919
O       0.04193746     4.85044047     6.30364862    -0.15820158    -0.44516328     0.80764397
O       1.91610801     6.73428598     1.67184900     0.31552513    -0.18039149    -0.32845675
O      -0.10837455     0.77125245     6.55411462     0.59410606     1.01704086    -0.58425976
O       1.91706900     2.72033900     1.82452198     0.15248859    -0.31748688    -1.56142150
