# total energy = -4955.36218846 eV

CRYSTAL
PRIMVEC
        4.27854174     0.00000000     0.00000000
       -0.00000648     2.56712504     0.00000000
       -2.13929497    -1.28360935     4.65951650
PRIMCOORD
6 1
Ti     -0.00018340     1.92543503     1.16487881    -0.02007827    -0.02542848    34.19389524
Ti      2.13942355    -0.64191943     3.49463711     0.02007827     0.02542848   -34.19389524
O       0.00004531     0.64177302     0.75899706     0.01925166     0.02187187   -21.72454448
O       2.13919474     0.64174253     3.90051891    -0.01925166    -0.02187187    21.72454448
O      -0.00001762    -0.64178156     3.08875531    -0.00122847    -0.00014321     1.10656464
O       2.13925763     1.92529706     1.57076061     0.00122847     0.00014321    -1.10656464
