# total energy = -19944.70298241 eV

CRYSTAL
PRIMVEC
        6.54732686     0.00000000     0.00000000
        0.00002766     5.15050906     0.00000000
        0.00000000     0.00000000    10.42435298
PRIMCOORD
24 1
Ti      2.37310749     3.05218694     3.86736061     0.37343308    -0.20101663     0.32542748
Ti      4.17424709     2.09832229     6.55699243    -0.37343308     0.20101663    -0.32542748
Ti      5.64665784     2.09832408     1.34477426     0.37420286     0.20131000    -0.32517114
Ti      0.90069674     3.05218538     9.07957889    -0.37420286    -0.20131000     0.32517114
Ti      2.37309378     0.47693253     1.34481606     0.37309883    -0.21173762    -0.32605277
Ti      4.17426080     4.67357688     9.07953709    -0.37309883     0.21173762     0.32605277
Ti      0.90068302     0.47693056     6.55695064    -0.37361177    -0.21132907    -0.32590442
Ti      5.64667156     4.67357885     3.86740240     0.37361177     0.21132907     0.32590442
O       2.07228007     1.81358183     5.31946754     0.89554590     0.82415894    -0.51931675
O       4.47507457     3.33692740     5.10488550    -0.89554590    -0.82415894     0.51931675
O       1.20144119     1.81360261     0.10732458    -0.89537210     0.82491433    -0.52067018
O       5.34591351     3.33690668    10.31702817     0.89537210    -0.82491433     0.52067018
O       4.47506086     0.76167282     0.10729076    -0.89635143    -0.82552060    -0.52028657
O       2.07229378     4.38883642    10.31706199     0.89635143     0.82552060     0.52028657
O       5.34589980     0.76165210     5.31950136     0.89600819    -0.82523263    -0.52044238
O       1.20145478     4.38885719     5.10485168    -0.89600819     0.82523263     0.52044238
O       0.23789637     3.13283157     2.81587781    -0.98132385     0.14731450     0.24014035
O       6.30945827     2.01767766     7.60847523     0.98132385    -0.14731450    -0.24014035
O       3.51156685     2.01762963     2.39633186    -0.98084485    -0.14670180    -0.23994778
O       3.03578779     3.13287966     8.02802100     0.98084485     0.14670180     0.23994778
O       0.23788265     0.55757704     2.39629857    -0.98123797     0.14648609    -0.24015732
O       6.30947199     4.59293225     8.02805429     0.98123797    -0.14648609     0.24015732
O       3.03577407     0.55762508     7.60850847     0.98134673     0.14671980    -0.24032419
O       3.51158057     4.59288415     2.81584451    -0.98134673    -0.14671980     0.24032419
