# total energy = -19957.42170052 eV

CRYSTAL
PRIMVEC
        4.91696488     0.00000000     0.00000000
        0.00002695     5.23313754     0.00000000
        0.00000000     0.00000000     8.80028596
PRIMCOORD
24 1
Ti      1.78217925     3.10115247     3.26484339    -0.02984563     0.50621106    -0.54191264
Ti      3.13481258     2.13198513     5.53544282     0.02984563    -0.50621106     0.54191264
Ti      4.24057561     2.13198693     1.13526455    -0.02543542    -0.50736729     0.53790892
Ti      0.67641622     3.10115087     7.66502176     0.02543542     0.50736729    -0.53790892
Ti      1.78216587     0.48458380     1.13529984    -0.03002664     0.50139153     0.53656423
Ti      3.13482596     4.74855395     7.66498647     0.03002664    -0.50139153    -0.53656423
Ti      0.67640285     0.48458185     5.53540753     0.02569587     0.50125706     0.54209493
Ti      4.24058898     4.74855590     3.26487868    -0.02569587    -0.50125706    -0.54209493
O       1.55625992     1.84267674     4.49071866    -1.01631760    -0.90578661    -0.10818255
O       3.36073191     3.39046090     4.30956755     1.01631760     0.90578661     0.10818255
O       0.90227025     1.84269782     0.09060388     1.01490093    -0.90532613    -0.10771461
O       4.01472163     3.39043983     8.70968208    -1.01490093     0.90532613     0.10771461
O       3.36071854     0.77389208     0.09057532     1.01655749     0.90647592    -0.10785885
O       1.55627329     4.45924551     8.70971063    -1.01655749    -0.90647592     0.10785885
O       4.01470826     0.77387101     4.49074721    -1.01599699     0.90541689    -0.10812393
O       0.90228352     4.45926664     4.30953900     1.01599699    -0.90541689     0.10812393
O       0.17866108     3.18309092     2.37717684    -0.36628849     0.22456049    -0.24188716
O       4.73833075     2.05004668     6.42310937     0.36628849    -0.22456049     0.24188716
O       2.63714746     2.04999791     2.02299424    -0.36688962    -0.22451807     0.24104667
O       2.27984437     3.18313969     6.77729182     0.36688962     0.22451807    -0.24104667
O       0.17864771     0.56652209     2.02296614    -0.36696521     0.22452218     0.24104075
O       4.73834412     4.66661550     6.77731992     0.36696521    -0.22452218    -0.24104075
O       2.27983099     0.56657087     6.42313742     0.36595630     0.22493819     0.24176838
O       2.63716083     4.66656673     2.37714874    -0.36595630    -0.22493819    -0.24176838
