# total energy = -4984.43206536 eV

CRYSTAL
PRIMVEC
        3.51000952     0.00000000     0.00000000
        1.34999742     3.24001139     0.00000000
       -2.43003606    -1.62002742     4.57558873
PRIMCOORD
6 1
Ti      1.01240318     2.43013328     1.14389694     0.00076156    -0.00076156    -0.00000000
Ti      1.41756781    -0.81014928     3.43169116    -0.00076156     0.00076156    -0.00000000
O       0.33753585     0.80999860     0.74532590     0.00073328     0.00114028    -1.26252242
O       2.09243498     0.80998533     3.83026225    -0.00073328    -0.00114028     1.26252242
O      -0.33750553    -0.80997839     3.03312017     0.00114028     0.00073328    -1.26252242
O       2.76747630     2.42996229     1.54246803    -0.00114028    -0.00073328     1.26252242
