# total energy = -19519.19250652 eV

CRYSTAL
PRIMVEC
        7.60600008     0.00000000     0.00000000
        0.00000000     7.60600008     0.00000000
       -1.89786986    -1.89786986     4.85670466
PRIMCOORD
23 1
Ti      3.79511498     6.62075602     1.21364098     1.11181484    -0.70828802    -0.02103292
Ti      3.83938902     2.81499701     1.24724300    -0.02388633     0.63942948     0.20355020
Ti      0.06347402     6.77726300     1.25177000    -1.55672718    -1.29941314    -0.40322446
Ti     -0.00707298     2.86355098     1.10317698    -0.11990987     1.25488573     0.42422807
Ti      5.60534722     2.89346722     3.64728784    -0.14362368    -0.16384567     1.67393842
Ti      5.68608925    -0.99539278     3.62124184     0.01134217     0.39874842    -0.64568806
Ti      1.98827821     2.79476424     3.58058081    -0.02275761     0.19402657     1.29343455
Ti      1.91618723    -0.99144078     3.66933881    -0.07174949    -0.13681488     0.00921947
O       4.02347000     4.71659398     0.79153597    -0.80159544     0.04354473     0.16254417
O       3.87634602     0.92861802     0.80350401    -0.17102008     0.11815689    -0.26765811
O      -0.11695198     4.75723701     0.80894802     0.79778224     0.74720091     0.30726725
O      -0.14685002     0.98944297     0.70408499     0.73133797    -0.90466201     1.04797355
O       5.56733023     4.75103225     4.01335980     1.06248358     0.13190690     0.47810247
O       5.54302623     0.98284525     4.09531882     0.61712129    -0.24422764    -1.12747158
O       1.79268022     4.68429824     4.02610181    -0.27349554     0.34495990     0.25092665
O       1.86742725     0.94034120     4.02974879    -0.22032742    -0.20175505     0.18187605
O       3.80755023     2.84043721     3.26467083    -0.67092345    -0.07765274    -0.97077281
O       3.80870420    -1.06951077     3.23481179    -1.03014834     0.31856366    -0.43160559
O      -0.00693376    -0.92102279     3.18866283     0.77610680    -0.01374075     0.67823413
O       5.74651102     6.76392001     1.71363501    -0.87580882    -0.13020791    -0.89474732
O       5.75799300     2.87197601     1.80231098     0.95051534    -0.26877808    -1.54893596
O       1.91374201     6.66808601     1.61574103     0.23307650     0.05892559    -0.00817071
O       1.86177500     2.86506099     1.63873399    -0.30960747    -0.10096289    -0.39198745
