# total energy = -4989.43042753 eV

CRYSTAL
PRIMVEC
        3.61411959     0.00000000     0.00000000
        0.18058538     3.60960515     0.00000000
       -1.89738457    -1.80483309     4.61386340
PRIMCOORD
6 1
Ti      0.13529303     2.70734092     1.15346572     0.00237544    -0.00254668    -0.00109400
Ti      1.76202690    -0.90256931     3.46039742    -0.00237544     0.00254668     0.00109400
O       0.04518436     0.90239538     0.75156062     0.00012624     0.00117551     0.96705139
O       1.85213542     0.90237613     3.86230257    -0.00012624    -0.00117551    -0.96705139
O      -0.04516654    -0.90237843     3.05849232     0.00113797     0.00006865     0.96653974
O       1.94248632     2.70714989     1.55537093    -0.00113797    -0.00006865    -0.96653974
