# total energy = -39030.94620049 eV

CRYSTAL
PRIMVEC
        7.60600008     0.00000000     0.00000000
        0.00000000     7.60600008     0.00000000
       -3.79573973    -3.79573973     9.71340985
PRIMCOORD
46 1
Ti      1.94430443     4.47452645     6.11957463     0.13152329     1.79824847     0.09608756
Ti      3.75629099     6.78557198     1.37942798    -0.94125808     1.24790569    -0.65219835
Ti      2.08022345     1.10199247     5.95964160    -1.01635231    -3.50670293     0.10135447
Ti      3.83664698     2.93536399     1.18069800     0.50700065    -2.16790922     0.22319163
Ti     -1.90031054     4.81923045     6.12018763     0.51677110     2.21555127     0.79302493
Ti      0.00117297     6.70200802     1.11054498     0.64686871    -0.62826215     1.41948910
Ti     -1.82831957     1.00105746     6.03109561     0.25025482    -1.01510096    -0.72346550
Ti     -0.12081302     2.83590602     1.32973199     0.11491987     0.41824588    -1.54852587
Ti      3.77101043     1.06000447     8.43732564    -0.30714718    -1.12607315     0.77659711
Ti      5.63568601     2.91862701     3.83127202     0.80291416    -0.65975380    -1.29263339
Ti      3.76106846    -2.71986856     8.56047264     0.24571168     1.59446585    -0.40361141
Ti      5.63987202    -0.88809500     3.64637400     1.33093256     0.22524235     0.65152318
Ti      0.03505545     0.77597044     8.24458865    -0.31656231     0.60238784    -0.91720488
Ti      1.95414702     2.71021198     3.31937400    -0.86185081     0.09953027     1.97591382
Ti     -0.03834556    -3.01982454     8.51718462     0.31062897     0.91273373     0.42583963
Ti      1.75712898    -0.98546197     3.86751500     0.40437914    -0.98725693     1.16413655
O       2.00740744    -0.93319657     5.68441964    -0.67963332    -0.57481223    -0.78495012
O       3.78772698     1.06402601     1.08019502    -0.21962191    -2.97290110    -1.69762291
O      -2.18914453     3.06040444     5.67161164     0.16681915    -3.81558433     0.39347689
O      -0.03745601     4.79270898     0.75751702     0.41172710    -0.07686213    -0.47900004
O      -1.70252255    -0.83590458     5.79046464    -1.12063373    -1.40144072    -1.69959032
O       0.33058602     0.96946802     0.86882300    -1.18540421    -0.28366555    -1.38776682
O       3.40971445     2.94525844     8.80395662     1.01188039    -0.38553063     0.38374680
O      -1.48195898     4.67331400     4.24383300    -0.87025138     2.59340741    -1.93270205
O       3.38210346    -0.91576653     9.02273363     1.84398302    -0.52002946    -0.94335635
O       5.88010499     0.97563801     4.00836701    -1.11221902    -0.11234954     0.28636161
O       0.05623244     2.43596947     9.11725961     0.10088370     1.88145506     0.59438091
O       2.01839501     4.50709202     4.30630502    -0.50802935    -0.89890479    -1.88462832
O      -0.08751856    -0.89282256     9.05010564     0.05058802     0.62833465    -1.12278857
O       1.88504499     0.83008998     3.93223597     0.32273784     3.85463014     0.67132274
O       1.83083343     0.75603845     7.99925763     1.44070508     1.35885089    -1.09920332
O       3.85943801     2.60979001     3.13491599     0.43585383     1.55074602     0.84952262
O       1.75001144    -2.74510455     8.05692260     1.53816509    -0.68453590     1.51177605
O       3.57752402    -0.87983200     3.40524200     3.83523888    -0.88885872    -1.50052439
O      -1.93331358     1.26394547     7.88424963     0.48437108    -0.36348496     1.19620388
O      -0.01466398     2.75002600     3.26548301     0.00094180     0.44115621    -0.75842481
O      -1.88958253    -2.43763553     8.10168862    -0.42715630    -1.70468805     0.50090893
O       0.05921398    -0.80089500     3.13666899    -1.54921621    -0.87500689    -0.39961874
O       3.86379843     4.89736542     6.42656163    -1.53520241    -0.59501777     1.37112432
O       5.70670599     6.51574101     1.65341897    -1.01059870     0.23224655     1.07988198
O       3.90508744     0.66645842     6.43202062    -1.81321178     1.46345755     0.04018430
O       5.69502202     2.59426601     1.31520401    -0.22474381     1.46762428     1.63092205
O       0.05067343     4.79020645     6.60644464    -0.90986232    -1.44104781    -0.71393288
O       1.94347399     6.55657503     1.37421400    -0.33794850    -0.57858739     0.24385894
O       0.10059845     0.69616744     6.10888562     0.05223429     2.39862391     2.31061964
O       1.91919401     2.81244701     1.41283198    -0.01113031     1.27952308     1.25029965
