# total energy = -19517.72437183 eV

CRYSTAL
PRIMVEC
        7.60600008     0.00000000     0.00000000
        0.00000000     7.60600008     0.00000000
       -1.89786986    -1.89786986     4.85670466
PRIMCOORD
23 1
Ti      3.82776300     6.82479899     1.24342398    -0.28080005     0.25268734     0.59861937
Ti      3.93356299     3.01923302     1.17473799    -1.08319125    -0.18542366     0.65237807
Ti     -0.08369600     6.53719100     1.28706099     0.58305494     0.52236942     0.04177916
Ti      0.00529500     2.82760900     1.00087998     1.28358079    -0.71924169     1.34755758
Ti      5.69282424     2.72621525     3.62482379    -0.77012667     0.11644556    -0.39453233
Ti      5.63422220    -1.22460776     3.72724483    -1.10426788     1.49299079    -0.48937599
Ti      2.00218822     2.88380424     3.58252681    -0.31716703    -0.03109493     0.62643538
Ti      1.82178725    -0.91418878     3.67882283     0.42440804     1.46252552    -1.26474385
O       3.95639397     4.86135999     0.68057798    -0.56292242    -0.01622058     0.90357983
O       4.00914998     1.10605702     0.99987200    -0.07720589    -0.95018546    -1.17941842
O       0.30607898     4.68674700     0.61677900     0.12991198     0.35099351     1.49921261
O      -0.24025102     0.76327902     0.85479800     0.49886105     1.51549721    -1.01060281
O       5.55348621     4.64839123     3.96364582     0.05387132    -1.07742915     0.66268486
O       5.53989323     0.88658224     3.99209381     0.56040942    -0.53930966    -0.14298141
O       1.99335821     4.94999025     4.08488583    -0.82057996    -1.89522821     0.19168198
O       1.61863520     1.00417024     4.10051582     0.29142797     0.71095605     0.04669099
O       3.78064225     2.87136121     3.24573682     1.74071796    -0.01941826    -0.17348705
O       3.67978424    -0.89293078     3.17805780     0.86731055    -0.15780306     0.20408447
O      -0.18610476    -1.21406279     3.24426083     2.02054305     0.42267846     0.32081080
O       5.69844299     6.49484502     1.64338101    -1.00181426     0.05790512    -0.09504678
O       5.90671298     2.92480902     1.74610500    -0.19302127     0.37072159    -1.12479557
O       1.78453698    -0.52264599     1.73282398     0.06662656    -1.53974067    -0.09507737
O       2.05320900     2.88834003     1.69179602    -2.30962694    -0.14467526    -1.12545352
