# total energy = -39035.15880366 eV

CRYSTAL
PRIMVEC
        7.60600008     0.00000000     0.00000000
        0.00000000     7.60600008     0.00000000
       -3.79573973    -3.79573973     9.71340985
PRIMCOORD
46 1
Ti      1.79656047     4.84549044     6.00941861     0.29313852    -1.03667638     1.46816704
Ti      3.85032701     6.85386199     1.24148999    -0.18392110    -1.32806475     0.61303555
Ti      1.97475847     0.68498143     6.09515363     1.16920805     2.96792961     0.91610548
Ti      4.04798699     2.65260199     1.19884201    -0.64565129     1.47102585     2.15636600
Ti     -2.01777355     4.59004642     6.22436062    -1.99991174     1.17465417    -2.04343745
Ti     -0.04596598     6.68204602     1.20668601    -0.00890013     0.42615588    -0.27020479
Ti     -1.87194653     0.91532244     6.01585261    -1.43590226    -0.42517577    -0.46966025
Ti      0.12497500     2.89271299     1.16659702    -0.37383777    -0.23745303    -0.29357510
Ti      3.83143247     1.08149944     8.50328964    -0.11911051    -0.89872893     0.04740936
Ti      5.77531700     2.88539198     3.65595999    -0.58262376    -0.16997029    -0.51861433
Ti      3.71553646    -2.81831654     8.46422160    -0.69002572     0.49792517     1.05617075
Ti      5.74193702    -1.01016497     3.72732198    -1.40117949     0.44212398    -0.29730371
Ti      0.04531043     0.91823747     8.32182561    -0.01845256     0.99320955     2.34079104
Ti      1.87400699     2.85073299     3.57557098     1.06052954    -2.53959395    -0.95551871
Ti     -0.09031653    -2.85320154     8.39215263     0.38339276    -0.78315600     1.44606506
Ti      1.77033598    -0.86762198     3.55244700     2.91123908     0.66480859     0.67160813
O       1.99958546    -0.96974954     5.65545163    -0.38419083    -2.57815074    -1.13228237
O       3.87505700     0.95008399     0.74064098    -0.01488901     0.17545574    -0.63121917
O       5.43543142     2.86097743     5.52150861     0.24620559    -0.79006558     2.12408090
O      -0.09032098     4.81717703     0.82317601     0.77354727    -1.03881477     0.12124684
O      -2.20223055    -1.04479058     5.65531764     1.28178950     1.06261625    -0.06995203
O      -0.20561002     0.85641797     0.84239599     0.47830738     2.80654860    -0.82646059
O       3.73020446     2.92728842     8.94406064     0.09370672    -0.52088872    -0.75623962
O       5.90497802     4.74075499     4.11768900    -0.35090480     0.88205403    -0.56814716
O       3.84887944    -0.82769656     8.92441065     0.17933374    -1.70387147     0.56721771
O       5.71287398     1.02729502     4.04121998     0.64270867    -2.00509354     0.80862099
O       0.22263646     2.80312847     8.97272564    -1.00359681    -0.67585663    -0.34552245
O       1.95591902     4.49901402     4.12366198    -0.21939900     3.24463415     0.19283744
O      -0.08989155    -0.85845954     9.05905165     0.32129571     0.37649217    -1.13804627
O       1.67762402     1.00422501     4.23492102     1.02429857     0.42639165    -0.24812775
O       1.93819645     0.87543242     8.30647460     0.00430763     0.02123603    -1.52942103
O       3.91361603     2.83089498     3.19800402    -0.42116125     0.08496394    -0.53711188
O       1.78110145    -2.87802356     7.91556465    -0.36978442     0.41574574     0.83318094
O       3.77253901    -0.67936299     3.15834901    -0.20754441    -1.00606327     0.58997146
O      -1.90213456     0.99311843     7.95722561     0.79611591     0.49580272     0.90203023
O       0.05173602     2.79110302     3.26925700     0.00456962     0.35794706    -0.47339632
O      -1.96675255    -2.85797255     8.26473564     0.00621179    -0.14582351    -0.87589238
O       0.04541002    -0.73291901     3.29102502    -2.04657419    -0.99108170    -0.05561093
O       3.71369847     4.75406147     6.55998663    -0.79430919    -0.42194492    -0.47944227
O       5.70582798     6.59770602     1.69961202    -0.71559021    -0.51227784     0.20488794
O       3.87086343     0.88349645     6.49771861    -1.86802207     0.63611533    -0.09641872
O       5.84401902     2.73358902     1.67488002    -0.59292926     0.78918035    -1.17680849
O      -0.27502157     4.53689343     6.37313060     4.41952023     0.47943018     1.07266181
O       1.82615598     6.89619199     1.50342702     1.11860564    -1.09021756     1.12043627
O       0.09969144     0.89344546     6.53485563    -0.49084537     0.09629042    -2.00944051
O       1.98958200     2.90766500     1.70034599    -0.26877448    -0.08976727    -1.45503718
