# total energy = -4989.55706909 eV

CRYSTAL
PRIMVEC
        3.18190644     0.00000000     0.00000000
        0.00000000     4.07910306     0.00000000
        0.00000000    -0.00005990     4.57811799
PRIMCOORD
6 1
Ti      1.59095322     2.03952153     2.28905910     0.00000000     0.00000000     0.00000000
Ti      0.00000000     0.00000000     0.00000000     0.00000000     0.00000000     0.00000000
O       1.59095322     0.79494542     0.89220782    -0.00000000    -0.02251053    -0.16965122
O       1.59095322     3.28409764     3.68591037    -0.00000000     0.02251053     0.16965122
O       0.00000000     1.24455187     3.18126774     0.00000000     0.02397169    -0.17224058
O       0.00000000     2.83449119     1.39685045     0.00000000    -0.02397169     0.17224058
