# total energy = -19076.97880847 eV

CRYSTAL
PRIMVEC
        7.60600008     0.00000000     0.00000000
        0.00000000     7.60600008     0.00000000
       -1.89786986    -1.89786986     4.85670466
PRIMCOORD
22 1
Ti      3.80963201     6.59621199     1.18267898    -0.69977818     0.41159906    -0.44778195
Ti      3.78556402     2.84910201     1.22048298     0.05018512    -0.14695814    -0.47131038
Ti     -0.00654402     6.67601398     1.21141098     0.54292000     0.41222178    -0.69482983
Ti     -0.02586999     2.89467999     1.20582800     0.09861984    -0.67042517     0.42748797
Ti      5.70263625     2.86549222     3.65946182     0.31140467     0.09819689    -0.57566995
Ti      5.73363021    -0.94241378     3.63954380    -0.16353713    -0.44259835     0.11356850
Ti      1.91682023     2.85472722     3.63795781    -0.26193509    -0.25600792    -0.27780754
Ti      1.89526425    -0.97587376     3.70404183    -0.04555482     0.29413225    -1.57879085
O       3.72003500     4.77216198     0.74017202     0.39427882    -0.62901394     0.46943270
O       3.76109402     0.92668800     0.69714700     0.23319066    -0.01710221     1.79834566
O       0.01770902     4.77309900     0.80304902    -0.11030165    -0.44229419    -0.20438015
O      -0.02349198     0.96859598     0.83775500     0.01540991    -0.70791444    -0.22401130
O       5.71839022     4.71872921     3.96735181     0.07004228     0.97637422     0.44161464
O       5.72249421     0.90028021     3.97225881    -0.09844886     0.48542703     0.58332927
O       1.87816722     4.72622320     4.05233884     0.13471840     0.54771305    -0.78995503
O       1.85450823     0.93579525     4.12451983     0.36410948     0.06945992    -1.14279587
O       3.83270821     2.93781222     3.23009979    -0.28927621    -0.50036951     0.13286103
O       0.02945221     2.82258621     3.25176081    -0.34746878     0.14013160    -0.89233614
O       5.62895599     6.54248499     1.68456598     1.15021094     0.42257047     0.88803854
O       5.69201598     2.84100999     1.57886298     0.64583076     0.12877118     0.34055380
O       1.94050298     6.65373102     1.61086799    -1.00708168     0.05064638     1.60671201
O       1.95024899     2.88756198     1.58574699    -0.98753821    -0.22455998     0.49772539
