# total energy = -4990.16841637 eV

CRYSTAL
PRIMVEC
        3.92213593     0.00000000     0.00000000
        0.39122640     3.90257506     0.00000000
       -2.15671595    -1.95131901     5.01180251
PRIMCOORD
6 1
Ti      0.29326951     2.92707975     1.25295038     0.00028899    -0.00028899     0.00000000
Ti      1.86337652    -0.97582401     3.75885153    -0.00028899     0.00028899     0.00000000
O       0.09784795     0.97563759     0.81638159    -0.00040315    -0.00081067    -0.50017540
O       2.05879797     0.97561805     4.19542043     0.00040315     0.00081067     0.50017540
O      -0.09782624    -0.97561795     3.32228273    -0.00081067    -0.00040315    -0.50017540
O       2.25447210     2.92687355     1.68951928     0.00081067     0.00040315     0.50017540
