# total energy = -19073.10415288 eV

CRYSTAL
PRIMVEC
        5.17600016     0.00000000     0.00000000
        0.00000000     5.50899976     0.00000000
        0.00000000     0.00000000     9.26300011
PRIMCOORD
22 1
Ti      1.48239402     3.20256500     3.61874597     0.36295840     0.85404417    -0.57688609
Ti      4.29680999     2.36410698     5.88338499    -1.11051823    -0.31069402    -0.26332117
Ti      4.08689602     2.06198001     1.43931201     0.93405821    -0.34068235     2.89534914
Ti      1.15921801     3.16716997     8.16790001    -1.07052239    -0.97487526    -0.82689768
Ti      1.57502301     0.44734999     1.13785200    -0.67430754     0.28587592     2.05822541
Ti      3.33755298     5.18863300     7.96115200     0.65270846     0.17931034    -0.29478249
Ti      1.57013002     0.43501598     5.83576999     0.38133125    -0.90301393    -1.70719128
Ti      4.00188602     4.96388999     3.51887298     0.42568408    -0.17575631     1.29791341
O       3.17593299     3.27395202     4.61797698     0.06572848     0.37222671     0.03318678
O       0.43768600     2.03858699     0.36070801     0.91595404    -0.02835516    -1.32245023
O       4.68790500     3.64468100     7.36624199    -1.26958396    -0.13346704     0.02752984
O       3.26230800     0.75059898     0.37389098     0.77065452     0.21577991    -1.39771750
O       1.96769300     4.41545598     9.18961597     0.03706735    -0.13128315     1.27924283
O       3.33790901     0.46711402     5.04508599     0.21334636     0.17244241    -1.66128164
O       0.47388998     4.76669500     4.73472200     0.50490597     0.03130576    -0.39745207
O       4.82111601     3.32436202     2.77556098     0.27519504     0.55159773    -1.27679282
O       0.94991402     2.08501499     5.00234900    -1.76124309    -0.92966651     1.16449753
O       2.32534898     1.88160200     2.31214400    -0.02637439     1.18428784     0.14505012
O       1.98067801     4.34402700     6.88480600     0.58156832     0.12742521    -0.52393651
O       4.99561401     0.74277499     2.49458701    -0.83807093    -0.64470847    -0.97201054
O       2.96490599     1.31903700     7.11816602    -0.34038153     1.31748440     0.96798702
O       2.16138098     4.77199000     2.44739800     0.96984130    -0.71927872     1.35173768
