# total energy = -19950.67081247 eV

CRYSTAL
PRIMVEC
        5.33322911     0.00000000     0.00000000
        1.92765151     5.33882516     0.00000000
        0.00000000     0.00000000     9.69945682
PRIMCOORD
24 1
Ti      3.07536362     3.16378276     3.59842931     1.63508801    -2.87331966     1.11745121
Ti      4.18551719     2.17504225     6.10102761    -1.63508801     2.87331966    -1.11745121
Ti      5.38489346     2.17504407     1.25126042    -3.47507964    -0.20608994     1.08584257
Ti      1.87598738     3.16378110     8.44819661     3.47507964     0.20608994    -1.08584257
Ti      2.11153800     0.49437032     1.25129931     1.63508801    -2.87331966    -1.11745121
Ti      5.14934283     4.84445480     8.44815772    -1.63508801     2.87331966     1.11745121
Ti      0.91216165     0.49436836     6.10098872     3.47507964     0.20608994     1.08584257
Ti      6.34871919     4.84445682     3.59846820    -3.47507964    -0.20608994    -1.08584257
O       2.36675960     1.87989103     4.94955857     0.67517708     1.38591896    -0.97814134
O       4.89412121     3.45893398     4.74989835    -0.67517708    -1.38591896     0.97814134
O       1.65741173     1.87991257     0.09986137     0.50824789    -0.67823593     0.53408106
O       5.60346914     3.45891249     9.59959528    -0.50824789     0.67823593    -0.53408106
O       3.93029557     0.78952144     0.09982990    -0.67517708    -1.38591896    -0.97814134
O       3.33058524     4.54930358     9.59962676     0.67517708     1.38591896     0.97814134
O       4.63964349     0.78949989     4.94959005    -0.50824789     0.67823593     0.53408106
O       2.62123727     4.54932513     4.74986688     0.50824789    -0.67823593    -0.53408106
O       1.36627543     3.24737602     2.62006527     0.23931117     0.46247221     0.35773263
O       5.89460538     2.09144900     7.07939165    -0.23931117    -0.46247221    -0.35773263
O       3.61552041     2.09139927     2.22969402     1.48895725     0.03644951    -0.76503871
O       3.64536040     3.24742575     7.46976274    -1.48895725    -0.03644951     0.76503871
O       0.40244979     0.57796347     2.22966303     0.23931117     0.46247221    -0.35773263
O       6.85843102     4.76086154     7.46979373    -0.23931117    -0.46247221     0.35773263
O       2.68153476     0.57801320     7.07942254    -1.48895725    -0.03644951    -0.76503871
O       4.57934605     4.76081181     2.62003433     1.48895725     0.03644951     0.76503871
