# total energy = -4989.02131779 eV

CRYSTAL
PRIMVEC
        2.92197762     0.00000000     0.00000000
        0.90659415     4.48764151     0.00000000
       -0.00000604    -0.00005995     4.60159552
PRIMCOORD
6 1
Ti      1.91428282     2.24379078     2.30079786     0.00000000     0.00000000     0.00000000
Ti      0.00000000     0.00000000     0.00000000     0.00000000     0.00000000     0.00000000
O       1.63766943     0.87456359     0.89678325    -1.65597977     0.74830134     0.75327283
O       2.19089620     3.61301798     3.70481248     1.65597977    -0.74830134    -0.75327283
O       0.27661091     1.36920291     3.19758194     1.65585250    -0.74846435     0.75346540
O       0.62997720     3.11837855     1.40401379    -1.65585250     0.74846435    -0.75346540
