# total energy = -19948.01134708 eV

CRYSTAL
PRIMVEC
        5.65450956     0.00000000     0.00000000
        0.00002389     4.44816691     0.00000000
        0.00000000     0.00000000     9.00285030
PRIMCOORD
24 1
Ti      2.04950192     2.63597963     3.33999325    -0.38839767     1.76099986    -3.15108504
Ti      3.60503158     1.81218744     5.66285710     0.38839767    -1.76099986     3.15108504
Ti      4.87665905     1.81218898     1.16139595    -0.38595410    -1.76083659     3.15233357
Ti      0.77787445     2.63597828     7.84145450     0.38595410     1.76083659    -3.15233357
Ti      2.04949008     0.41189627     1.16143205    -0.38839767     1.76099986     3.15108504
Ti      3.60504342     4.03627094     7.84141840     0.38839767    -1.76099986    -3.15108504
Ti      0.77786261     0.41189457     5.66282100     0.38595410     1.76083659     3.15233357
Ti      4.87667089     4.03627264     3.34002935    -0.38595410    -1.76083659    -3.15233357
O       1.78969642     1.56627522     4.59408560     0.90135068    -1.83386855     2.20569931
O       3.86483713     2.88189185     4.40876475    -0.90135068     1.83386855    -2.20569931
O       1.03760830     1.56629316     0.09268941    -0.90042457    -1.83469285     2.20601890
O       4.61692530     2.88187395     8.91016069     0.90042457     1.83469285    -2.20601890
O       3.86482529     0.65780834     0.09266020    -0.90135068     1.83386855     2.20569931
O       1.78970826     3.79035872     8.91018990     0.90135068    -1.83386855    -2.20569931
O       4.61691346     0.65779045     4.59411481     0.90042457     1.83469285     2.20601890
O       1.03762004     3.79037667     4.40873554    -0.90042457    -1.83469285    -2.20601890
O       0.20545595     2.70562726     2.43189447     1.43852324    -0.59280276     0.88352856
O       5.44907760     1.74253980     6.57095588    -1.43852324     0.59280276    -0.88352856
O       3.03271683     1.74249831     2.06955934     1.43851321     0.59282385    -0.88375610
O       2.62181672     2.70566880     6.93329086    -1.43851321    -0.59282385     0.88375610
O       0.20544411     0.48154381     2.06953058     1.43852324    -0.59280276    -0.88352856
O       5.44908944     3.96662331     6.93331962    -1.43852324     0.59280276     0.88352856
O       2.62180488     0.48158529     6.57098459    -1.43851321    -0.59282385    -0.88375610
O       3.03272867     3.96658177     2.43186571     1.43851321     0.59282385     0.88375610
