# total energy = -19073.24039790 eV

CRYSTAL
PRIMVEC
        5.93400000     0.00000000     0.00000000
        0.00000000     9.29699974     0.00000000
        0.00000000     0.00000000     4.64899994
PRIMCOORD
22 1
Ti      4.41293000     6.83456300     2.68309699    -1.40134302     1.97881146    -1.99114479
Ti      4.47655500     2.43705402     2.00998400    -0.79783880     0.13918081     0.47906740
Ti      1.43131699     7.24743598     2.50629601     0.92139244     1.28291822    -1.28529418
Ti      1.61328601     2.20005299     2.23331098    -0.35188208     1.74711693     0.56303478
Ti      3.02018999     4.36574602     4.37268401    -0.60135451     0.64538030     0.33591347
Ti      2.99148101     9.25843997     0.10796999     1.37540469     0.54665967     0.16088144
Ti      5.83470598     4.62479501     4.56170501     0.30752693    -0.00193553     0.57192411
Ti      0.06056899     9.18598402     0.24698099    -1.46943254    -0.25548419    -0.09488685
O       4.33222000     5.34054100     0.86279599    -0.68773641     1.05792681     0.37969011
O       4.71098898     1.09438798     0.77055902    -1.50010555     0.27594426     0.15452876
O       1.44802200     0.99216400     0.79655199     0.32435121     0.19676583     0.74825172
O       4.46410600     8.59907898     3.79726403     0.27909129    -1.70833979    -0.76060947
O       4.58887498     3.93593101     3.41213702    -1.19746320    -0.90103110    -0.81675596
O       1.49849000     8.57577301     3.78139098     0.04566127    -0.67281578    -0.83266261
O       1.27738700     3.48854398     3.83891901     1.02956059     0.93941974    -1.45859971
O       2.66035099     6.12283902     3.26936701     1.18723278    -1.55566429     0.58005497
O       2.90924898     1.41884502     3.16139199     1.28869318     0.06727731     0.18159143
O       0.06904800     6.34463499     3.47422200     0.50435421    -1.29545646     0.67998273
O       3.16362502     8.08526502     1.55659499    -1.25633609    -1.07837120     0.01083335
O       2.88288199     3.07508398     1.10837498     0.28499584     0.67113376     0.73008147
O       5.79236598     7.97745002     1.53833901     0.52133764    -1.57114336     0.58163003
O       5.86439901     3.34484198     1.28544801     1.19389040    -0.50829289     1.08248780
