# total energy = -19961.72595316 eV

CRYSTAL
PRIMVEC
        7.60600008     0.00000000     0.00000000
        0.00000000     7.60600008     0.00000000
       -1.89786986    -1.89786986     4.85670466
PRIMCOORD
24 1
Ti      3.76792400     6.67536003     1.09054202     0.93045147     0.63044013     1.34643349
Ti      3.86808900     2.91111999     1.15088802    -1.26969992    -1.07293357     0.64064818
Ti      0.00689402     6.68579201     1.24746298    -1.12872756    -0.17932834    -0.23948498
Ti     -0.00362402     2.86635102     1.27752897     0.49742637    -0.01553641    -0.24650281
Ti      5.72716922     2.79235823     3.69240380    -1.01665133    -0.02060020     0.35922695
Ti      5.70439825    -0.99984480     3.67580679    -0.81062568     0.38186861    -0.79731893
Ti      1.92095221     2.86374223     3.65179082     0.71727994    -0.04507428    -0.99010160
Ti      1.88493524    -0.92419680     3.59703484     0.73855634    -0.23211645    -0.04016630
O       3.80467499     4.76077800     0.78805399    -0.11797640     0.18458445    -0.19342493
O       3.80215600     0.91594301     0.65286201    -0.13621041     0.68501258     0.77370128
O      -0.10520901     4.72476903     0.86885200     0.26570690     0.47990353    -0.51177570
O      -0.17529002     0.99566102     0.79302402     0.45698110    -0.73149969     0.41882618
O       5.74554522     4.73574824     4.14248683    -0.34700650    -0.27927899    -0.20512911
O       5.80880021     0.94669122     4.16175179     0.13100084    -0.02718711    -0.60666693
O       2.00216123     4.77996422     3.96411679    -0.21961729    -1.15822687     0.10091044
O       1.82162320     0.95147424     4.04823681    -0.04191722     0.05144522    -0.03429184
O       3.82508822     2.65823323     3.24612782     0.13165313     0.52940474    -0.04846146
O       3.75546225    -0.95648476     3.07789682     0.49633854     0.07839065     1.08027562
O      -0.00488579     2.82831323     3.26859579    -0.44063531     0.16066958    -0.23985907
O      -0.07339477    -1.17966579     3.20211583     1.05595143     0.68568776     0.18081213
O       5.68435698     6.80160002     1.68705798    -0.03608750    -0.44858773    -0.38388590
O       5.61393302     2.91948100     1.58112198     1.51953770    -0.22385267     0.80493994
O       1.90907699     6.66208900     1.61718399    -1.05525878     0.31547370    -0.78984113
O       1.90844399     2.79606400     1.69891499    -0.32046987     0.25134163    -0.37886376
