# total energy = -19910.53386866 eV

CRYSTAL
PRIMVEC
        5.82272181     0.00000000     0.00000000
        0.00002197     3.71828194     0.00000000
        0.00000000     0.00000000     8.89292074
PRIMCOORD
24 1
Ti      2.11046945     2.20345042     3.29921018    -1.20950728     3.73495039    -5.79362985
Ti      3.71227395     1.51483147     5.59371065     1.20950728    -3.73495039     5.79362985
Ti      5.02173017     1.51483272     1.14721471    -1.20544468    -3.73480332     5.80292877
Ti      0.80101327     2.20344931     7.74570617     1.20544468     3.73480332    -5.80292877
Ti      2.11045866     0.34430950     1.14725038    -1.21029404     3.73464648     5.79745643
Ti      3.71228474     3.37397249     7.74567055     1.21029404    -3.73464648    -5.79745643
Ti      0.80100243     0.34430815     5.59367498     1.20577018     3.73547155     5.79716949
Ti      5.02174097     3.37397384     3.29924581    -1.20577018    -3.73547155    -5.79716949
O       1.84293585     1.30927024     4.53798940     3.58247671    -4.07111171     6.08966087
O       3.97980760     2.40901160     4.35493143    -3.58247671     4.07111171    -6.08966087
O       1.06847437     1.30928526     0.09155761    -3.58275465    -4.07219877     6.09050110
O       4.75426912     2.40899663     8.80136294     3.58275465     4.07219877    -6.09050110
O       3.97979680     0.54987058     0.09152875    -3.58123436     4.07165807     6.09042988
O       1.84294664     3.16841126     8.80139180     3.58123436    -4.07165807    -6.09042988
O       4.75425828     0.54985562     4.53801821     3.58185297     4.07326784     6.09127526
O       1.06848507     3.16842627     4.35490257    -3.58185297    -4.07326784    -6.09127526
O       0.21156624     2.26166986     2.40219975     4.68113650    -0.98533066     2.88474591
O       5.61117721     1.45661199     6.49072103    -4.68113650     0.98533066    -2.88474591
O       3.12293384     1.45657742     2.04428891     4.68364693     0.98558803    -2.88595098
O       2.69980956     2.26170447     6.84863173    -4.68364693    -0.98558803     2.88595098
O       0.21155539     0.40252884     2.04426052     4.68123060    -0.98431404    -2.88573270
O       5.61118800     3.31575300     6.84866012    -4.68123060     0.98431404     2.88573270
O       2.69979876     0.40256345     6.49074937    -4.68391843    -0.98479124    -2.88542031
O       3.12294464     3.31571839     2.40217137     4.68391843     0.98479124     2.88542031
