# total energy = -39025.35532514 eV

CRYSTAL
PRIMVEC
        5.93200024     0.00000000     0.00000000
        0.00000000     9.29399984     0.00000000
        0.00000000     0.00000000     9.29399984
PRIMCOORD
46 1
Ti      4.38060198     7.18737399     6.73374902     1.24538987     2.32112492    -1.44389505
Ti      4.26127098     6.71790900     2.46747499     0.72971277     0.40530911     0.92678662
Ti      4.46945899     2.34671801     6.87823298     1.99003458    -0.47379407    -1.01589337
Ti      4.42445501     2.83173298     1.82936702     0.88400550    -1.01662819     2.19418874
Ti      1.34427098     6.87647701     7.14292099     1.02254636     1.00099177    -1.87334734
Ti      1.45194998     6.97878201     2.19189699    -0.45279175    -0.24350439    -0.47364829
Ti      1.49552301     2.21474200     6.88595802    -1.80888282     0.47149807    -0.28324954
Ti      1.73099202     1.73315000     3.13008698     0.06303525     0.23691156     0.10005015
Ti      2.78864600     4.67594703     4.76537798     2.06113436     0.51092107     0.84382197
Ti      3.12319799     4.81482700     8.77948000     0.24115260    -0.08551415     0.01433056
Ti      3.07362001     0.11023799     4.91527702     1.96313929    -0.26732901     1.25802453
Ti      2.89312998     0.20767498     9.14973601     0.59324602    -2.24020173     1.99939495
Ti      5.86478103     4.69567798     4.63108798    -1.46366092    -0.06308461     1.01568306
Ti      0.31374702     4.82973599     8.93232698    -1.79969240    -1.75163513     1.65527169
Ti      5.75050298     8.83847099     4.33351802    -1.78288638    -0.12983484     3.47006444
Ti      5.89110701     9.19920498     0.11124502    -0.65461082     0.36721769    -0.97916386
O       4.26981301     5.95654602     5.32867102     0.65389503    -2.16364248    -0.87968193
O       4.46292900     4.85558498     1.12484599     0.13392573     0.22867220    -0.04877102
O       4.69566502     0.85570099     5.67346900    -0.27373980    -0.74698005    -1.08361111
O       4.49769399     0.98977202     0.71629200    -1.58159567     0.90106195     1.27242503
O       1.43798203     5.49194501     5.86226500    -0.43864090     0.15774187    -1.82231169
O       1.68829498     5.45385399     0.75021401    -0.44308531     0.98958635     0.85532509
O       1.64751701     1.25632998     5.20950401    -0.42538532     5.03067168     3.81076711
O       1.36156200     0.54875501     1.14792098     2.00753326     1.03595853    -0.45460000
O       4.47441601     8.29151402     8.19591000    -0.36071305     2.15014315     2.78419465
O       4.14320402     8.28511500     3.78413598    -1.24572103    -1.11464614     0.17192948
O       4.50387599     3.55939800     8.26981902     0.16136352     1.96386460     2.97817057
O       4.37918898     3.78896801     3.74962902     0.71123116     2.17553383    -0.03067610
O       1.50698298     8.27355200     8.32409700    -0.09402142     1.19083052     2.53958778
O       1.46984400     9.07626298     3.99532502     2.31626013    -3.30073744    -7.06884479
O       1.53993501     3.92346698     7.98130402     1.15996828    -1.11438414     1.53287016
O       1.41727299     3.67986700     4.11301800    -0.17188320    -0.81291524    -2.05609782
O       3.18619300     6.14057900     7.51753498    -2.54794001    -2.61325891     3.24228005
O       2.60484702     5.85780001     3.18163599     0.66327981     0.85629028    -0.34709340
O       3.09265499     1.39255200     7.89589899    -1.99756149     1.00279051    -1.34363176
O       3.61111402     1.54725999     3.43724701    -1.89069278    -0.01836694    -1.67747780
O       5.64730600     6.15365402     7.96677001    -0.14825758     0.78429680    -1.02450143
O       0.09037501     6.56574900     3.57245498     0.00387697    -1.57129531    -0.84164528
O       5.88043298     1.34858197     8.02733000     2.38718301     0.88689259    -1.70506395
O       2.73689399     8.12126500     6.25714802     0.68626677     0.32162096    -1.60807984
O       3.04923298     7.91358103     1.81433400    -1.09968514    -0.73758601    -2.05804954
O       3.08193502     3.44388898     6.23199998    -0.15487200    -1.12071652    -1.12399082
O       0.16494899     7.90751099     5.83974300    -0.46201198    -0.63444848     1.16093270
O       5.65622301     7.99726999     1.69859399     0.85741334    -1.56915590    -1.03605957
O       0.02869300     3.36405000     6.13463899    -0.61911699    -0.93621048    -0.32491043
O       0.07048498     2.31427098     2.57218498    -0.61814511    -0.26405959    -1.22180307
