# total energy = -4985.98817449 eV

CRYSTAL
PRIMVEC
        2.73713353     0.00000000     0.00000000
        0.63970379     4.24070008     0.00000000
       -0.00000402    -0.00005567     4.30085883
PRIMCOORD
6 1
Ti      1.68841640     2.12032212     2.15042936     0.00000000     0.00000000     0.00000000
Ti      0.00000000     0.00000000     0.00000000     0.00000000     0.00000000     0.00000000
O       1.49323470     0.82643908     0.83817401    -2.97714008     1.69333843     1.81290505
O       1.88359810     3.41420516     3.46268467     2.97714008    -1.69333843    -1.81290505
O       0.19517995     1.29386048     2.98860429     2.97641631    -1.69226293     1.81180745
O       0.44451943     2.94678385     1.31225439    -2.97641631     1.69226293    -1.81180745
