# total energy = -19915.48088904 eV

CRYSTAL
PRIMVEC
        7.90596183     0.00000000     0.00000000
        0.00002782     4.53079540     0.00000000
        0.00000000     0.00000000    11.96105945
PRIMCOORD
24 1
Ti      2.86554750     2.68494530     4.43746791     0.40571303    -0.29020155     2.40135802
Ti      5.04044234     1.84585047     7.52359204    -0.40571303     0.29020155    -2.40135802
Ti      6.81839292     1.84585207     1.54301431     0.40543072     0.29031596    -2.40130866
Ti      1.08759691     2.68494382    10.41804576    -0.40543072    -0.29031596     2.40130866
Ti      2.86553371     0.41954766     1.54306225     0.40571303    -0.29020155    -2.40135802
Ti      5.04045612     4.11124823    10.41799782    -0.40571303     0.29020155     2.40135802
Ti      1.08758313     0.41954587     7.52354410    -0.40543072    -0.29031596    -2.40130866
Ti      6.81840671     4.11124996     4.43751585     0.40543072     0.29031596     2.40130866
O       2.50229671     1.59537016     6.10363728     1.08460922     1.20643918    -1.84438694
O       5.40369312     2.93542556     5.85742267    -1.08460922    -1.20643918     1.84438694
O       1.45075015     1.59538841     0.12314579    -1.08461333     1.20668961    -1.84584321
O       6.45523974     2.93540736    11.83791378     1.08461333    -1.20668961     1.84584321
O       5.40367934     0.67002786     0.12310699    -1.08460922    -1.20643918    -1.84438694
O       2.50231049     3.86076792    11.83795258     1.08460922     1.20643918     1.84438694
O       6.45522596     0.67000960     6.10367608     1.08461333    -1.20668961    -1.84584321
O       1.45076375     3.86078617     5.85738381    -1.08461333     1.20668961     1.84584321
O       0.28725879     2.75588663     3.23098067    -2.18230047     0.73426054     0.36979651
O       7.61873105     1.77490914     8.73007928     2.18230047    -0.73426054    -0.36979651
O       4.24024946     1.77486677     2.74958730    -2.18144583    -0.73411219    -0.36977002
O       3.66574038     2.75592900     9.21147240     2.18144583     0.73411219     0.36977002
O       0.28724500     0.49048887     2.74954912    -2.18230047     0.73426054    -0.36979651
O       7.61874483     4.04030690     9.21151058     2.18230047    -0.73426054     0.36979651
O       3.66572659     0.49053124     8.73011739     2.18144583     0.73411219    -0.36977002
O       4.24026324     4.04026454     3.23094249    -2.18144583    -0.73411219     0.36977002
