# total energy = -19518.01271712 eV

CRYSTAL
PRIMVEC
        7.60600008     0.00000000     0.00000000
        0.00000000     7.60600008     0.00000000
       -1.89786986    -1.89786986     4.85670466
PRIMCOORD
23 1
Ti      3.84244603     6.72442502     1.18213202     0.61518962     0.86090490    -0.13675214
Ti      3.73384102     2.94921398     1.14120201     0.71145819    -1.29718399     1.63849060
Ti     -0.05860702     6.56565899     1.20562400    -0.09245202     0.02908562    -0.99956300
Ti      0.00225202     2.66059902     1.25532099    -0.89430483     1.30438385     0.54178460
Ti      5.57770824     2.83809724     3.82314481    -0.58112507     0.19668407    -3.79530603
Ti      5.68570623    -0.87060580     3.66345484    -0.80224850    -1.23938891    -0.71688631
Ti      1.96221623     2.89930521     3.69197680     1.35317210     0.81448413    -0.83177301
Ti      1.83685822    -0.90896078     3.48457081     1.49222023    -0.37582446     1.98390919
O       3.95765199     4.83872401     0.81648203    -0.03225450    -0.94445730    -0.77711210
O       3.82352900     1.03379200     0.80131798    -0.38754278     0.25311054    -0.66261930
O      -0.13418702     4.61000800     0.72612803     0.46269667     1.70478318     3.56339064
O       0.27070798     0.90310802     0.75131898    -0.09308374    -1.43173578     0.69092998
O       5.76489220     4.65483121     3.95593782     0.26159545     0.75731512     1.40889358
O       5.48991223     0.86792525     4.16419384     0.80118047    -0.26742979    -0.70939642
O       1.97842223     4.81682925     3.99205481    -0.75585756    -0.17473069     0.72480222
O       1.84844624     1.04447725     3.83003581    -0.63198356    -1.10597689     1.23432718
O       3.81763624     2.72501222     3.19984281    -0.83850673     0.47249849    -0.37368659
O       3.88937622    -1.11501377     3.22594379    -0.34149096     0.67184853     0.09251707
O       0.00411224    -1.05577376     3.09950382     0.05604647     0.30137660     0.67236532
O       5.70463701     6.83823703     1.66864002     1.18676458    -0.17139160    -0.99626171
O       5.79920702     2.79661101     1.83787900     1.42271661    -0.43843779    -0.90348779
O       2.04066401     6.48748602     1.67761201    -1.74674849     0.36506670    -1.36096228
O       1.95150097     3.08444899     1.64576400    -1.16544190    -0.28498504    -0.28760422
