# total energy = -19876.15232710 eV

CRYSTAL
PRIMVEC
        6.86692949     0.00000000     0.00000000
        0.00002162     2.77218576     0.00000000
        0.00000000     0.00000000    10.62829475
PRIMCOORD
24 1
Ti      2.48894457     1.64279468     3.94302156    -1.44784118     0.76383210    -2.32097836
Ti      4.37800674     1.12939098     6.68527328     1.44784118    -0.76383210     2.32097836
Ti      5.92229211     1.12939193     1.37108340    -1.44562643    -0.76474149     2.32267684
Ti      0.94465919     1.64279388     9.25721155     1.44562643     0.76474149    -2.32267684
Ti      2.48893385     0.25670185     1.37112600    -1.44784118     0.76383210     2.32097836
Ti      4.37801745     2.51548391     9.25716894     1.44784118    -0.76383210    -2.32097836
Ti      0.94464848     0.25670085     6.68523067     1.44562643     0.76474149     2.32267684
Ti      5.92230283     2.51548490     3.94306417    -1.44562643    -0.76474149    -2.32267684
O       2.17343424     0.97613371     5.42353744     9.68436010    -2.02403127     6.00825071
O       4.69351711     1.79605195     5.20475740    -9.68436010     2.02403127    -6.00825071
O       1.26008603     0.97614488     0.10942425    -9.68929662    -2.02281719     6.00696645
O       5.60686537     1.79604078    10.51887030     9.68929662     2.02281719    -6.00696645
O       4.69350639     0.40995907     0.10938978    -9.68436010     2.02403127     6.00825071
O       2.17344491     2.36222659    10.51890477     9.68436010    -2.02403127    -6.00825071
O       5.60685466     0.40994790     5.42357197     9.68929662     2.02281719     6.00696645
O       1.26009660     2.36223781     5.20472288    -9.68929662    -2.02281719    -6.00696645
O       0.24950460     1.68620052     2.87096755     3.94854409    -1.49752802     2.69769911
O       6.61744670     1.08598514     7.75732729    -3.94854409     1.49752802    -2.69769911
O       3.68297839     1.08595938     2.44321362     3.94677183     1.49788309    -2.69796316
O       3.18397296     1.68622633     8.18508103    -3.94677183    -1.49788309     2.69796316
O       0.24949389     0.30010764     2.44317968     3.94854409    -1.49752802    -2.69769911
O       6.61745742     2.47207802     8.18511497    -3.94854409     1.49752802     2.69769911
O       3.18396225     0.30013341     7.75736114    -3.94677183    -1.49788309    -2.69796316
O       3.68298910     2.47205225     2.87093366     3.94677183     1.49788309     2.69796316
