# total energy = -4985.48292676 eV

CRYSTAL
PRIMVEC
        3.13221246     0.00000000     0.00000000
        2.10205203     4.43474570     0.00000000
       -0.00001373    -0.00006595     5.04332562
PRIMCOORD
6 1
Ti      2.61712527     2.21733990     2.52166270     0.00000000     0.00000000     0.00000000
Ti      0.00000000     0.00000000     0.00000000     0.00000000     0.00000000     0.00000000
O       1.97576246     0.86425383     0.98286985    -1.95331279     1.21828812     1.05817595
O       3.25848803     3.57042599     4.06045555     1.95331279    -1.21828812    -1.05817595
O       0.64135707     1.35305946     3.50453360     1.95275075    -1.21828760     1.05802657
O       1.46068110     3.08162021     1.53879181    -1.95275075     1.21828760    -1.05802657
