# total energy = -19074.09446715 eV

CRYSTAL
PRIMVEC
        5.17600016     0.00000000     0.00000000
        0.00000000     5.50899976     0.00000000
        0.00000000     0.00000000     9.26300011
PRIMCOORD
22 1
Ti      1.84146301     3.42470001     3.16516497     1.79435454    -0.01764832     1.15630651
Ti      3.42131502     2.21858800     5.82193899    -0.27479678     0.41684617    -0.62352849
Ti      4.49043500     2.28680101     1.23559401    -1.03328329     0.78764849    -0.89371965
Ti      0.86994099     3.05075902     7.96269000    -0.91946591     1.96377436     0.11602210
Ti      1.83199698     0.49263402     1.21786800     0.34539107     0.59797428    -0.94499595
Ti      3.28179199     5.01155198     8.12504100     0.88984216    -1.59706857     1.36769986
Ti      0.82241601     0.19003602     6.29100298     0.47005980    -1.33516845    -1.54091155
Ti      4.45327898     5.12476098     3.48790298    -0.51329445     0.10182524     0.91047630
O       3.37999602     3.46228202     4.48708102    -0.39581171     0.07778233     0.05159152
O       1.11779000     2.06932202     0.25164098    -1.37270272    -0.43821333    -0.65385517
O       4.32324600     3.72185299     9.13684600     0.33416949    -1.27988971    -0.52685857
O       3.42452999     0.82199002     0.20567601     1.31253117     0.55256627    -0.77463819
O       1.64368598     4.73933997     8.90371802    -1.48373482    -0.27088433     1.54590875
O       3.52341702     0.85180598     4.50090800     1.14238038    -0.34573149     0.70728092
O       0.97502999     4.85194900     4.58857002    -1.44259433     0.78716975     0.22853799
O       0.06295701     3.45333099     2.69239802    -0.29447498    -0.72500071    -1.40429362
O       0.07005201     1.97484002     6.34869902     0.12644433    -0.45408861     0.85128897
O       2.71271001     2.02532099     2.16963101    -0.15611333     0.71184694     0.83463645
O       2.19209199     3.71130701     6.77755500     0.43511823    -1.32697717     0.40825637
O       0.02863399     0.76202201     2.06076602     1.00693745    -1.59748098     1.47078854
O       2.43639598     0.73306898     7.00995399     0.29294877     2.88962561    -1.77651107
O       2.78751800     4.73984100     2.35509002    -0.26390533     0.50109225    -0.50948151
