# total energy = -19073.03421116 eV

CRYSTAL
PRIMVEC
        5.17600016     0.00000000     0.00000000
        0.00000000     5.50899976     0.00000000
        0.00000000     0.00000000     9.26300011
PRIMCOORD
22 1
Ti      1.94116101     3.57197401     3.34187001     1.14549810    -1.10175051    -0.57041025
Ti      3.53374402     2.08619198     5.92798903     0.04588110     0.53742709    -2.72186338
Ti      4.50888598     2.25705998     1.34377900    -0.50464012     0.37814437    -1.05564676
Ti      0.53154701     3.01648702     8.05181699     0.92161613     2.27139102    -0.87058511
Ti      1.84008498     0.55840101     1.35538000     0.45424571     1.14595370    -2.00113044
Ti      3.15914802     5.07891000     8.15639200    -0.34892582     1.08430994     0.69315733
Ti      0.80784802     0.01474002     5.97554200    -1.23158535     1.21691181    -0.73208024
Ti      4.48383801     5.02547098     3.31703101    -0.00042655    -1.62487635     1.68563488
O       3.64493803     3.25055201     4.20393600    -0.34927010     0.38929165     2.16731324
O       0.87922297     1.84133400     0.10296398    -0.04732683     0.13600447     0.53570420
O       4.27722800     3.77587002     8.94364201    -0.23561212    -0.98278758     0.40361501
O       3.46678500     0.85774600     0.33659499     0.27276972    -0.29647247    -2.81677620
O       1.73255299     4.74921902     9.18572202    -0.98102817    -0.83347791    -0.02263446
O       4.38457902     0.73099000     4.79044199    -0.85914138    -0.00686948     0.65377444
O       1.20204602     5.06153102     4.15706201    -0.58407875    -0.45683506     1.92776450
O       0.36170699     3.65813899     2.20584399    -0.61375289    -1.10208784     0.68163981
O       4.93741398     1.66022800     7.02214602     0.27521124    -0.88835375     0.03141632
O       2.78978902     2.19357401     2.07844001    -1.12410343     0.04310379     0.84759250
O       1.75202401     4.18496299     6.76206201     0.25558986    -3.10473215     0.78075562
O       0.00682898     0.64079401     2.08886798     0.92115076     1.65763068    -0.04975575
O       2.21033199     0.98570301     6.73581001     1.59307308     1.64869557     0.44065485
O       2.82607200     4.89787899     2.38853201     0.99485608    -0.11062124    -0.00814037
