# total energy = -19518.30904555 eV

CRYSTAL
PRIMVEC
        7.60600008     0.00000000     0.00000000
        0.00000000     7.60600008     0.00000000
       -1.89786986    -1.89786986     4.85670466
PRIMCOORD
23 1
Ti      3.81485499     6.70398899     1.24035602    -0.48863962     0.24608063    -0.17845957
Ti      3.73686601     2.96001603     1.14344599     0.38287983    -0.49295933     1.84293786
Ti     -0.10584000     6.55729502     1.17254799     1.28811725    -0.49417727    -0.10371551
Ti      0.03902301     2.71296000     1.20629500    -0.55811188     0.52518093     1.27448011
Ti      5.69635020     2.81370921     3.59791279    -1.43834995     0.40903901     1.24957023
Ti      5.71960522    -1.00529575     3.69783982    -0.04454618    -0.32978036    -0.44828949
Ti      1.92778621     2.91046720     3.66033983     1.45816930     0.42190173    -0.10616140
Ti      1.82975322    -0.91371575     3.61135781     0.54104438    -0.50543896    -0.62626491
O       4.11814600     4.79374601     0.79202499    -1.04594521    -0.22519607    -0.06808078
O       3.76583899     1.09122498     0.87048800    -0.07790677    -1.03885179    -0.77889542
O      -0.18397302     4.79767399     0.80877101     0.63439963    -1.11592681    -0.23491201
O       0.23193802     0.82821097     0.82648199    -0.39172597     1.38816559    -0.67674623
O       5.83021723     4.68980523     3.96487182    -0.15986585     0.12458439    -0.00001208
O       5.49289923     0.91044321     4.30463679     0.47641711    -0.21313013    -3.55786636
O       1.89206225     4.75661121     4.09700679    -0.52196602     0.83830721     0.07742032
O       1.98985722     0.97573220     3.96650481    -0.93095386    -0.04620557     0.43443149
O       3.76002122     2.92424523     3.21531082     0.64315064    -0.16092001    -0.97318605
O       3.82984520    -1.07329275     3.14121579     0.06852070     0.12878815     1.08121150
O      -0.00125479    -1.12973480     3.11090679    -0.09387924     0.85031118     1.63911795
O       5.74932598     6.81485300     1.63178700    -1.41071289     0.46203229     0.24829075
O       5.79436701     2.81372799     1.74286602     0.17196264    -0.48373293    -0.30454703
O       1.88105700     6.62951798     1.61732099     1.18420222    -0.18935899     0.39924079
O       1.82884298     3.06189900     1.65349798     0.31373949    -0.09871240    -0.18956391
