# total energy = -19517.53979639 eV

CRYSTAL
PRIMVEC
        5.93400000     0.00000000     0.00000000
        0.00000000     9.29699974     0.00000000
        0.00000000     0.00000000     4.64899994
PRIMCOORD
23 1
Ti      4.57589501     7.13258801     2.25255002    -0.14861393    -0.23033365    -0.37520482
Ti      4.43735302     2.28709698     2.42257700     0.35407112    -0.39577957    -0.09641435
Ti      1.38699500     7.01530598     2.10601898     0.57891520     0.16170779     1.70955052
Ti      1.46998402     2.26143803     2.27879700    -0.63939168     0.12395601     0.90269717
Ti      2.98976399     4.42248901     0.21221500    -0.35975326    -0.85901154    -0.52377067
Ti      2.92852199     9.24687698     4.63181798    -0.53172259     0.30564180    -0.76002069
Ti      0.00261101     4.66517800     0.01128201     0.00752408    -1.07853241    -0.82530205
Ti      5.85354998     0.14420398     4.59784502     0.66493817     0.21889609     0.22961837
O       4.33128198     5.52331602     1.02543301     0.02641038     0.42538378    -0.57091933
O       4.38063998     0.92093601     0.87313299     1.25246786     0.16863461     0.13248797
O       1.48249298     5.49883300     0.87475000     0.56697679     1.14577013     0.50546519
O       1.59425003     0.97356300     0.91475701    -0.82702058    -0.71166671    -0.70735291
O       4.58275002     8.44805100     3.63532002    -0.44719188    -0.33323746     0.53557384
O       4.36879699     3.43862399     3.90339301    -0.15175634     2.37573980     0.38433121
O       1.54443698     8.37305902     3.61880799    -0.16610155    -0.40471621     0.45989468
O       1.48068801     3.71578099     3.70002702     0.44789894     1.07547768     1.01007728
O       3.01832898     1.26968202     3.15197698    -0.36759333     0.54140819     0.07447794
O       5.91565200     6.06215398     3.23817302     0.26778666     0.16371043    -0.31365002
O       0.04128397     1.59458198     3.43160001     0.07872592    -0.86534340    -1.16943097
O       3.07144700     8.02405101     1.41647499    -0.46993047    -2.00909932     0.55351886
O       2.93452900     3.23625602     1.58937900     0.57212183     0.54582638    -0.59794883
O       0.07960202     7.99536902     1.37970098    -0.65568606     0.14396538    -0.83378875
O       0.00515699     3.27538201     1.43092100    -0.05307505    -0.50839830     0.27611036
