# total energy = -39031.23433217 eV

CRYSTAL
PRIMVEC
        7.60600008     0.00000000     0.00000000
        0.00000000     7.60600008     0.00000000
       -3.79573973    -3.79573973     9.71340985
PRIMCOORD
46 1
Ti      1.87563045     4.69734045     6.15525965    -0.98771896     2.15186733     1.55509941
Ti      3.84093200     6.69390499     1.31989501    -0.33977449     1.12722424     0.20016251
Ti      1.76551247     0.75689243     6.18148064     2.34193158    -1.10312656    -1.14810289
Ti      3.64659700     2.78821101     1.20002599     0.92436926     0.38936929    -0.76123117
Ti     -1.98039754     4.51810843     5.89371665     1.16760343     1.94528066     2.03746811
Ti     -0.04725002     6.68292498     1.23570598     0.10323112     0.75662092     0.43300273
Ti     -1.63307756     1.03152643     6.00450160    -2.18977569    -0.22159112     0.51372563
Ti      0.02314801     2.93448402     1.06036299    -0.73902943    -0.32421469     0.32438952
Ti      3.92159745     1.15288244     8.42501962     1.02930425    -1.66805959    -0.18691824
Ti      5.54009702     2.83839199     3.35301702     2.62615377    -0.70370965     0.94224409
Ti      4.02487745    -2.93982056     8.47981762    -2.32416576     2.50722375     1.02745023
Ti      5.54646101    -0.93169201     3.86382002    -0.58943616     1.45902857    -1.60557610
Ti      0.12459642     1.02903147     8.48807061    -0.92607288     0.63973518     3.51103267
Ti      1.94737498     2.66614501     3.38086101    -4.09390686     0.07146255     0.56852177
Ti      0.00107545    -2.71761157     8.45986562     0.45078269    -1.37216793     0.06456685
Ti      1.82266399    -1.38570302     3.56006800     2.15948192    -0.71967338     1.59466356
O       1.29273446    -1.02266753     5.64777464     2.02938173    -0.26475713     0.45861813
O       3.62227601     0.99217300     1.11283600    -0.07648263     0.41619465    -1.30720307
O      -1.97581556     2.90351746     5.26946461     0.11377907    -2.44461428     2.13635972
O      -0.20517700     4.80795198     0.58846600    -0.01440101     0.30923312     2.01161643
O      -1.59046953    -0.79747657     5.87990660    -0.78280247    -0.54822059    -1.10418637
O       0.38119998     0.92840799     1.11256299    -0.98063762     0.37227891    -1.32004059
O       4.01986344     2.92388444     9.04665260    -0.21649108    -0.02757921    -0.59536950
O       5.51612698     4.87932598     4.06768799     0.09030695    -1.37294903    -0.66075062
O       4.04546345    -0.93166354     8.86770163    -0.08656933    -0.38071856     0.27842358
O       5.67505701     0.84247003     3.93378800     0.05047206     3.09180823     1.27527844
O       0.05740742     2.87620647     9.18859964     0.47689276    -0.25548959    -0.61813662
O       1.82107101     4.27129201     4.36519499     0.28656961     1.13946989    -0.34811670
O      -0.19831653    -0.85632357     8.87799762     0.55946686    -0.46738610     0.21305737
O       1.95879399     1.07977702     4.22287197    -0.41441313    -0.29125570     1.18958894
O       1.99181846     1.01201344     8.27471661    -1.12235739    -0.56531175    -0.97420369
O       3.64761497     3.07568200     3.14085198     2.53637261     0.06456068    -0.18517555
O       2.10115944    -2.91317654     8.22723661    -2.76441566     0.20462132    -0.71927615
O       3.59101899    -0.87129600     3.44219001     1.97249965    -0.52753683     0.38542599
O      -1.70286657     1.32013446     7.94847360    -2.95436858    -0.67598390     0.67345341
O      -0.20582799     2.91517799     3.17579699     1.72219187    -0.20919609    -0.16137998
O      -1.90851554    -2.97661356     7.99750362     3.38874788     0.12264758    -0.34780919
O       0.21190802    -1.10047299     3.08072501    -3.98005734     0.32668449     1.02484364
O       3.82085443     4.66008944     6.53957865    -0.20178874    -0.09395689    -1.37401552
O       5.62621998    -0.55366699     1.95202301     1.06837475    -1.98407914    -1.33736109
O       3.66662942     1.34071147     6.59315065    -0.06807204    -0.62997604    -1.63083566
O       5.70429300     3.05464699     1.56968498    -1.88826848    -0.20220423    -2.53120649
O      -0.00196558     4.40406147     6.44549665     0.50982064     0.12778542     1.24877730
O       2.02245698     6.31988500     1.56510400    -0.42436793    -0.61051124     0.47582910
O       0.05224646     1.31422546     6.72478862     2.70508615     0.64429812    -4.43633756
O       1.84751198     3.28855599     1.56874998    -0.14744742    -0.20312648    -0.79036615
