# total energy = -4984.91352244 eV

CRYSTAL
PRIMVEC
        3.43244585     0.00000000     0.00000000
        0.51197941     3.39404796     0.00000000
       -1.97224356    -1.69705060     4.39300738
PRIMCOORD
6 1
Ti      0.38385974     2.54566570     1.09825161     0.00151515    -0.00153881    -0.00027896
Ti      1.58832232    -0.84866803     3.29475530    -0.00151515     0.00153881     0.00027896
O       0.12803095     0.84850691     0.71558489     0.00096879     0.00326813     2.03043769
O       1.84415095     0.84849063     3.67742201    -0.00096879    -0.00326813    -2.03043769
O      -0.12800995    -0.84848884     2.91208858     0.00319897     0.00095388     2.02967201
O       2.10019181     2.54548639     1.48091832    -0.00319897    -0.00095388    -2.02967201
