# total energy = -4976.79199937 eV

CRYSTAL
PRIMVEC
        4.65047914     0.00000000     0.00000000
        0.00000000     2.42886800     0.00000000
        0.00000000    -0.00012811     6.47698042
PRIMCOORD
6 1
Ti      2.32523935     1.21436989     3.23849021     0.00000000     0.00000000     0.00000000
Ti      0.00000000     0.00000000     0.00000000     0.00000000     0.00000000     0.00000000
O       2.32523935     0.47332563     1.26226810     0.00000000    -0.11050451     2.04548970
O       2.32523935     1.95541421     5.21471237     0.00000000     0.11050451    -2.04548970
O       0.00000000     0.74099395     4.50075963     0.00000000     0.11059219     2.04386888
O       0.00000000     1.68774589     1.97622079     0.00000000    -0.11059219    -2.04386888
