# total energy = -19517.07690292 eV

CRYSTAL
PRIMVEC
        5.93400000     0.00000000     0.00000000
        0.00000000     9.29699974     0.00000000
        0.00000000     0.00000000     4.64899994
PRIMCOORD
23 1
Ti      4.37614599     7.02212601     2.23302999    -0.13650840     0.12365005     0.49760892
Ti      4.56057400     2.37962701     2.33999100    -1.06283376    -2.08678703     0.60986821
Ti      1.33958802     6.97024198     2.12141402     0.65653709    -0.39282049     1.49668958
Ti      1.49091600     2.37283301     2.29084298    -0.24074045    -1.78249275     0.85539066
Ti      3.02268098     4.47138102     0.18395699    -1.10508035     0.71029708     0.23836321
Ti      3.04521102     0.16545801     4.64382602    -0.96584066     0.31697060    -0.30775422
Ti      5.90274801     4.54615001     0.01287700     1.06648062     1.88662401    -0.94887831
Ti      0.01664199     9.21368502     4.52535800     0.72269006     0.84725748    -0.19856149
O       4.48930198     5.51087199     0.97247898    -0.87180381     0.22232980     0.13303227
O       4.51930098     0.96644303     0.96820699    -0.07931316    -0.37955256    -1.10378245
O       1.46498202     5.45469099     1.10847700     0.62004258     0.37787414    -0.63408698
O       1.44307102     0.98234703     0.88391799     0.04618577     0.07495463     0.07623581
O       4.30036601     8.37468402     3.65186099     1.13569088    -0.03325826     0.72596667
O       4.41861199     3.63647500     3.89183800    -0.09056843     0.00742201    -0.22151836
O       1.52380098     8.59413398     3.67773400    -0.65737939    -1.44362174    -0.13884194
O       1.60992801     3.75090201     3.76494299    -0.39963597     0.04978866     0.64222993
O       3.12233601     1.34005100     3.09347702    -1.27518485     0.48181874     1.19542972
O       0.00557599     6.06279899     3.45910902     0.03525704     0.43633334    -1.12776983
O       0.03604703     1.42638198     3.24599701    -0.31611648     0.28052469    -0.01402203
O       2.88590200     7.93007897     1.39108501     0.22922704    -1.32559315     0.67731830
O       2.89198902     3.32950102     1.59776599     1.62348873     0.06446684    -0.71903626
O       5.83345902     7.67207898     1.33518601    -0.04843446     1.90179841    -1.09276116
O       5.89205900     3.41895299     1.62588101     1.11384035    -0.33798475    -0.64112075
