# total energy = -19071.58999652 eV

CRYSTAL
PRIMVEC
        5.93400000     0.00000000     0.00000000
        0.00000000     9.29699974     0.00000000
        0.00000000     0.00000000     4.64899994
PRIMCOORD
22 1
Ti      4.33052398     6.71996702     2.49115800     0.63034217     1.01450343    -0.85968903
Ti      4.38475698     2.42733102     2.19503898    -1.78884980    -1.98098636    -0.22859327
Ti      1.50658901     7.19932297     2.60983600     0.68211007    -0.44051472    -0.78569754
Ti      1.61493800     2.53201202     2.04192498    -0.17339269     0.00833938     0.14702113
Ti      3.04393798     4.56804599     4.54292700    -0.23810378     0.66765763    -0.72241855
Ti      2.97915197     9.23773401     4.58327301     0.97969197     0.41084855     0.91417895
Ti      5.77459901     4.58774101     4.37139700     0.52887972    -1.52060291     0.14493622
Ti      0.05157399     8.99806000     0.45595103    -0.25792982     3.33964622    -2.81629926
O       4.56733699     5.40397702     0.88070599    -0.81307877     1.08006145     0.61295533
O       4.71105402     0.90729800     0.99356098    -0.89850087    -0.11953269    -0.21808568
O       1.68557401     0.64453800     1.27788802    -1.78894930     1.47063196    -1.73645790
O       4.56087500     8.17596002     3.89164199    -0.60687107     1.42896619    -0.03255455
O       4.27315900     4.07732600     3.09934300     0.11237833     0.61600184     2.95071452
O       1.30595601     8.61365602     3.65136001     0.99652679     1.14880326     1.21572550
O       1.59796802     4.09776902     3.43509400    -1.11691385    -1.59851431    -0.16632138
O       2.86320601     6.24093699     3.54640898    -0.69775369     0.36211585     0.04946290
O       2.74353501     1.79782700     3.26001100     1.12272969    -1.60309756     0.83144545
O       0.12433998     6.08281100     3.44283301    -0.05193450     1.36343054    -1.12439757
O       3.00405299     7.99521101     1.44646098     0.16926633    -2.37013762     0.72833569
O       3.05661098     2.97443701     0.90535200    -0.39467168     0.32587433     1.16552880
O       5.89927402     7.76880099     1.55178800    -0.37749053    -3.65560869     2.26314549
O       5.73269198     3.26734497     1.50882399     3.98251506     0.05211448    -2.33293554
