# total energy = -19900.53235825 eV

CRYSTAL
PRIMVEC
        6.76406926     0.00000000     0.00000000
        3.08348717     6.50522273     0.00000000
        0.00000000     0.00000000    12.44072189
PRIMCOORD
24 1
Ti      4.27892135     3.85498893     4.61541906    -0.24470612    -2.01877233     0.37647495
Ti      5.56863485     2.65023371     7.82530290     0.24470612     2.01877233    -0.37647495
Ti      7.08978924     2.65023591     1.60489223    -0.11376904    -1.32208590     0.32637930
Ti      2.75776709     3.85498698    10.83582993     0.11376904     1.32208590    -0.32637930
Ti      2.73717792     0.60237767     1.60494209    -0.24470612    -2.01877233    -0.37647495
Ti      7.11037832     5.90284517    10.83578007     0.24470612     2.01877233     0.37647495
Ti      1.21602349     0.60237527     7.82525304     0.11376904     1.32208590     0.32637930
Ti      8.63153282     5.90284756     4.61546899    -0.11376904    -1.32208590    -0.32637930
O       3.22661881     2.29059948     6.34840516     1.76384916     1.96212756    -0.80573646
O       6.62093739     4.21462316     6.09231686    -1.76384916    -1.96212756     0.80573646
O       2.32696421     2.29062576     0.12808422    -0.04391112    -1.00137615     1.72611640
O       7.52059208     4.21459700    12.31263746     0.04391112     1.00137615    -1.72611640
O       5.07919394     0.96201177     0.12804381    -1.76384916    -1.96212756    -0.80573646
O       4.76836228     5.54321094    12.31267781     1.76384916     1.96212756     0.80573646
O       5.97884861     0.96198554     6.34844551     0.04391112     1.00137615     1.72611640
O       3.86870754     5.54323718     6.09227645    -0.04391112    -1.00137615    -1.72611640
O       2.12130592     3.95684527     3.36054936     0.63339690     2.98318603     2.79860158
O       7.72625021     2.54837739     9.08017266    -0.63339690    -2.98318603    -2.79860158
O       4.83570896     2.54831685     2.85985119     0.49325990     2.16490617     1.87487637
O       5.01184724     3.95690579     9.58087056    -0.49325990    -2.16490617    -1.87487637
O       0.57956245     0.70423381     2.85981145     0.63339690     2.98318603    -2.79860158
O       9.26799368     5.80098885     9.58091030    -0.63339690    -2.98318603     2.79860158
O       3.47010377     0.70429433     9.08021227    -0.49325990    -2.16490617     1.87487637
O       6.37745243     5.80092831     3.36050962     0.49325990     2.16490617    -1.87487637
