# total energy = -4989.33629337 eV

CRYSTAL
PRIMVEC
        3.84569446     0.00000000     0.00000000
        1.12831306     3.67644877     0.00000000
       -2.48703847    -1.83825004     4.96538444
PRIMCOORD
6 1
Ti      0.84611711     2.75747752     1.24134582     0.00035018    -0.00035018     0.00000000
Ti      1.64085170    -0.91927897     3.72403788    -0.00035018     0.00035018     0.00000000
O       0.28211849     0.91910709     0.80882041    -0.00030956    -0.00034427    -0.97219206
O       2.20485015     0.91909138     4.15656329     0.00030956     0.00034427     0.97219206
O      -0.28208887    -0.91908520     3.29151247    -0.00034427    -0.00030956    -0.97219206
O       2.76905750     2.75728357     1.67387128     0.00034427     0.00030956     0.97219206
