# total energy = -4861.25265548 eV

CRYSTAL
PRIMVEC
        5.01825426     0.00000000     0.00000000
       -0.00000651     1.90347549     0.00000000
       -2.50915722    -0.95182809     5.53834892
PRIMCOORD
6 1
Ti     -0.00021442     1.42766049     1.38458699    -0.06985279    -0.06035230   123.97472077
Ti      2.50930500    -0.47601333     4.15376150     0.06985279     0.06035230  -123.97472077
O       0.00005328     0.47585372     0.90215171     0.06861840     0.06102104  -116.08466405
O       2.50903716     0.47579338     4.63619683    -0.06861840    -0.06102104   116.08466405
O      -0.00002175    -0.47590615     3.67132617    -0.00043863    -0.00000411     0.46951704
O       2.50911209     1.42755321     1.86702237     0.00043863     0.00000411    -0.46951704
