# total energy = -19960.58915042 eV

CRYSTAL
PRIMVEC
        7.60600008     0.00000000     0.00000000
        0.00000000     7.60600008     0.00000000
       -1.89786986    -1.89786986     4.85670466
PRIMCOORD
24 1
Ti      3.77803298     6.53338600     1.30794402    -1.03132565    -0.52104196    -1.26782969
Ti      3.78529202     2.86320802     1.23614202    -0.80167155     0.39207924    -1.57687487
Ti     -0.00041599     6.58445198     1.26371703     0.87650765     0.16178596    -0.43089417
Ti     -0.05549302     2.86347901     1.13480998     0.77137983     0.07427688     0.42530870
Ti      5.74468425     2.84997124     3.56072481     0.13318962     1.25011299     0.77620142
Ti      5.77961820    -0.94357680     3.67349582     1.39125529    -1.37337120     0.15840290
Ti      1.86855625     2.93014524     3.52615980    -0.72974131    -0.47375344     0.84355149
Ti      2.03295220    -0.96718377     3.74195881    -2.19771552     0.72515986    -0.19382397
O       3.51931701     4.71623498     0.77530002     1.01087278     1.13021752     0.02318673
O       3.54239797     1.01527900     0.78845198     1.22695479    -0.60319594     0.65412231
O       0.01992299     4.77657199     0.68629802    -0.80746990    -1.12706380     0.31048988
O       0.02241801     0.98436700     0.78671099    -0.59805296    -0.16370348    -0.13212698
O       5.97463621     4.64679121     4.13683680    -0.96832255     1.31487087    -0.54635602
O       5.87371121     0.87836020     3.92775083    -1.04590818     1.11126205     0.37188244
O       1.79559223     4.69872525     4.15708180     0.58558233     0.42433425     0.12676237
O       1.83513521     0.94654120     4.02922379     1.01990044     0.32428488    -0.24825759
O       3.75490323     2.99442821     3.11283781     0.31922494    -0.72044420     1.00285736
O       3.84916425    -1.29902680     3.33764379    -0.06945658     0.80465943    -0.65868448
O      -0.05629779     2.84289920     3.17710279     0.23257822    -0.47810889    -0.84477122
O       0.08824623    -1.04177675     3.35670782    -1.39193380    -0.05755674    -1.36499480
O       5.68024401     6.59791901     1.58087798    -0.14985346     0.34069649     0.72060001
O       5.66274501     3.07056697     1.53081199     0.11655843    -0.64250863     0.08158499
O       1.83262400     6.78006600     1.62358301     1.52831237    -0.50790156     1.22347043
O       1.75876800     3.20183802     1.60720000     0.57913477    -1.38509132     0.54619250
