# total energy = -19073.13214620 eV

CRYSTAL
PRIMVEC
        5.17600016     0.00000000     0.00000000
        0.00000000     5.50899976     0.00000000
        0.00000000     0.00000000     9.26300011
PRIMCOORD
22 1
Ti      1.81797802     3.35076802     3.25169202    -1.03230139     1.12165137     1.75367838
Ti      3.75835600     2.43979298     5.92838802     1.09636919    -1.80381877    -0.50586422
Ti      4.26831502     2.36653898     1.22404402     0.16058988    -0.79025302    -1.64490062
Ti      0.91766802     3.13635900     8.20810600    -0.78497557     0.45616298    -0.09355965
Ti      1.74102898     0.55351099     1.31380201     0.62085017     0.51029912    -3.06788797
Ti      3.23570901     4.91865200     7.79373402     0.38821847     1.87898294     2.63419747
Ti      0.79235398     0.11862799     6.07202398    -0.61383645     2.23466049    -0.24048565
Ti      4.41287502     5.05703402     3.40002601    -0.65871405     0.79903025     1.70363827
O       3.44316602     3.50659501     4.39667098    -0.54243098    -0.30474063     1.05186183
O       0.79886598     2.03471500     0.43821401     0.87391263    -0.01881714    -0.82273686
O       4.41419299     3.70154898     8.84705901    -1.20843719    -0.49018666     1.40287977
O       3.32158199     0.67498802     0.22400999    -0.38703756     1.32729445    -0.27419540
O       1.47854299     4.86957700     8.73425001     0.22970064    -0.13972665     0.12482556
O       4.21844900     0.80408600     4.89417300     0.88467785    -0.07763629    -0.60250765
O       0.88638100     4.86352401     4.38072798     0.57386915    -1.09513840     0.79121461
O       0.00342700     3.54240702     2.40069398     0.31626226    -0.59611486     0.42703134
O       0.29318399     1.93938498     6.87797898    -1.57796527    -0.70501166    -1.25107921
O       2.61413001     2.03786302     2.36131002     0.43440167    -1.56258673    -1.01908231
O       2.64450399     3.25402701     7.18158501    -1.33241403     0.09641229    -0.74253153
O       4.95750298     0.67302599     2.04018298     0.88593023    -0.16127868     1.10694543
O       2.53671598     0.79959402     6.60215301    -0.01806895    -1.26454819    -0.06277402
O       2.44792300     4.79373299     2.45474700     1.69139930     0.58536430    -0.66866782
