# total energy = -19908.82846162 eV

CRYSTAL
PRIMVEC
        6.53309365     0.00000000     0.00000000
        0.00002187     3.34783089     0.00000000
        0.00000000     0.00000000     9.87046635
PRIMCOORD
24 1
Ti      2.36794529     1.98392155     3.66187262    -1.03254873     1.69049350    -2.30367252
Ti      4.16517037     1.36390949     6.20859384     1.03254873    -1.69049350     2.30367252
Ti      5.63438029     1.36391068     1.27332117    -1.03004756    -1.69078429     2.30706149
Ti      0.89873543     1.98392051     8.59714543     1.03004756     1.69078429    -2.30706149
Ti      2.36793441     0.31000615     1.27336076    -1.03254873     1.69049350     2.30367252
Ti      4.16518131     3.03782498     8.59710585     1.03254873    -1.69049350    -2.30367252
Ti      0.89872449     0.31000487     6.20855425     1.03004756     1.69078429     2.30706149
Ti      5.63439117     3.03782627     3.66191220    -1.03004756    -1.69078429    -2.30706149
O       2.06777317     1.17882822     5.03682344     5.77464636    -2.27783678     4.61478736
O       4.46534255     2.16900282     4.83364302    -5.77464636     2.27783678    -4.61478736
O       1.19882743     1.17884169     0.10162197    -5.77433860    -2.27854923     4.61485986
O       5.33428834     2.16898935     9.76884418     5.77433860     2.27854923    -4.61485986
O       4.46533161     0.49508738     0.10158996    -5.77464636     2.27783678     4.61478736
O       2.06778405     2.85274366     9.76887624     5.77464636    -2.27783678    -4.61478736
O       5.33427745     0.49507390     5.03685545     5.77433860     2.27854923     4.61485986
O       1.19883816     2.85275718     4.83361100    -5.77433860    -2.27854923    -4.61485986
O       0.23737580     2.03634056     2.66625920     3.14164035    -0.97426540     1.27369541
O       6.29573987     1.31149053     7.20420725    -3.14164035     0.97426540    -1.27369541
O       3.50393080     1.31145928     2.26900539     3.14407415     0.97446389    -1.27370544
O       3.02918487     2.03637181     7.60146091    -3.14407415    -0.97446389     1.27370544
O       0.23736491     0.36242506     2.26897388     3.14164035    -0.97426540    -1.27369541
O       6.29575080     2.98540597     7.60149243    -3.14164035     0.97426540     1.27369541
O       3.02917398     0.36245631     7.20423872    -3.14407415    -0.97446389    -1.27370544
O       3.50394173     2.98537472     2.66622768     3.14407415     0.97446389     1.27370544
