# total energy = -4990.20050922 eV

CRYSTAL
PRIMVEC
        3.99330541     0.00000000     0.00000000
       -0.00000806     3.61299101     0.00000000
       -1.99668088    -1.80653177     4.86582768
PRIMCOORD
6 1
Ti     -0.00017456     2.70987902     1.21645668    -0.00047411    -0.00259527     2.46328564
Ti      1.99679071    -0.90341967     3.64937041     0.00047411     0.00259527    -2.46328564
O       0.00004057     0.90324095     0.79260348     0.00020595     0.00105724    -0.18868562
O       1.99657542     0.90321829     4.07322372    -0.00020595    -0.00105724     0.18868562
O      -0.00002048    -0.90322832     3.22551722    -0.00098602    -0.00032447    -0.17316438
O       1.99663647     2.70968751     1.64030998     0.00098602     0.00032447     0.17316438
