# total energy = -19946.69020455 eV

CRYSTAL
PRIMVEC
        5.77817458     0.00000000     0.00000000
        0.61347047     6.11904995     0.00000000
        0.00000000     0.00000000    10.35464318
PRIMCOORD
24 1
Ti      2.45785247     3.62614337     3.84149886     0.08874294    -1.23273541     0.73091245
Ti      3.93379276     2.49290663     6.51314467    -0.08874294     1.23273541    -0.73091245
Ti      5.23323113     2.49290871     1.33578155    -0.10672576     0.14847998    -0.32362667
Ti      1.15841411     3.62614159     9.01886216     0.10672576    -0.14847998     0.32362667
Ti      2.15111735     0.56661845     1.33582309     0.08874294    -1.23273541    -0.73091245
Ti      4.24052789     5.55243179     9.01882062    -0.08874294     1.23273541     0.73091245
Ti      0.85167891     0.56661620     6.51310320     0.10672576    -0.14847998    -0.32362667
Ti      5.53996626     5.55243399     3.84154040    -0.10672576     0.14847998     0.32362667
O       2.04484219     2.15462153     5.28389529     1.35530406     1.42031134    -0.27006055
O       4.34680304     3.96442854     5.07074824    -1.35530406    -1.42031134     0.27006055
O       1.27630823     2.15464627     0.10660686    -0.91665672     0.63067693     0.38987554
O       5.11533706     3.96440385    10.24803644     0.91665672    -0.63067693    -0.38987554
O       4.04006792     0.90490338     0.10657329    -1.35530406    -1.42031134    -0.27006055
O       2.35157731     5.21414668    10.24807001     1.35530406     1.42031134     0.27006055
O       4.80860194     0.90487869     5.28392892     0.91665672    -0.63067693     0.38987554
O       1.58304323     5.21417138     5.07071467    -0.91665672     0.63067693    -0.38987554
O       0.58308194     3.72195319     2.79704752     0.32378274     0.36063078     0.67074244
O       5.80856323     2.39709687     7.55759602    -0.32378274    -0.36063078    -0.67074244
O       3.33935055     2.39703989     2.38030717     0.55587657     0.73634056     0.05528285
O       3.05229468     3.72201012     7.97433624    -0.55587657    -0.73634056    -0.05528285
O       0.27634682     0.66242803     2.38027407     0.32378274     0.36063078    -0.67074244
O       6.11529835     5.45662198     7.97436928    -0.32378274    -0.36063078     0.67074244
O       2.74555955     0.66248502     7.55762906    -0.55587657    -0.73634056     0.05528285
O       3.64608568     5.45656505     2.79701448     0.55587657     0.73634056    -0.05528285
