# total energy = -4988.86578643 eV

CRYSTAL
PRIMVEC
        4.22529777     0.00000000     0.00000000
       -0.00000787     3.45706162     0.00000000
       -2.11267708    -1.72857031     4.95171653
PRIMCOORD
6 1
Ti     -0.00018339     2.59292506     1.23792927    -0.00208928    -0.00385254     4.86088573
Ti      2.11279621    -0.86443397     3.71378743     0.00208928     0.00385254    -4.86088573
O       0.00004359     0.86425813     0.80659422     0.00084821     0.00256596    -0.95925581
O       2.11256913     0.86423286     4.14512253    -0.00084821    -0.00256596     0.95925581
O      -0.00002044    -0.86425026     3.28245238    -0.00179103    -0.00021957    -0.73351826
O       2.11263305     2.59274125     1.66926431     0.00179103     0.00021957     0.73351826
