# total energy = -19077.16112306 eV

CRYSTAL
PRIMVEC
        5.17575250     0.00001323     0.00000000
        0.00001429     5.50856584     0.00000000
        0.00000000     0.00000000     9.26345890
PRIMCOORD
22 1
Ti      1.93478582     3.41865534     3.31130451    -0.08282683    -0.09683164     0.02836185
Ti      3.37999845     2.24879279     5.92495037     0.04877950     0.00942001    -0.07745631
Ti      4.49849539     2.26405590     1.15130418    -0.17837061    -0.09638864    -0.02209761
Ti      0.75910590     3.25341560     8.09930307    -0.05257368     0.19093533     0.01993094
Ti      1.84288796     0.59695651     1.21987005    -0.07719663     0.11740021     0.08906202
Ti      3.21179292     4.98959708     8.11920143     0.01237395    -0.02002273     0.08800169
Ti      0.73048230     0.55371831     5.80055780     0.19751299     0.00784444     0.00666430
Ti      4.48001362     4.96600043     3.47820082     0.01577989    -0.06332758     0.05204095
O       3.45398885     3.49386115     4.54755104    -0.02184102     0.01930745    -0.10115829
O       0.94315269     1.90700966     0.13032281     0.00288015     0.15967096    -0.11540735
O       4.18318918     3.61646967     9.11820624    -0.04525555    -0.09112739     0.07582726
O       3.55943752     0.82271344     0.07124413    -0.03988425     0.08665546     0.01532841
O       1.59984103     4.68891091     9.14001417    -0.04538976     0.12437151     0.00875538
O       4.24204873     0.81869829     4.72584216     0.01332758     0.01907862     0.03532517
O       0.94337302     4.64383210     4.57333879    -0.07759567    -0.16108687    -0.02996159
O       0.16279547     3.32509712     2.51784177     0.06739995    -0.09877462    -0.06941544
O       5.09257678     2.08743788     6.76357153    -0.08850640    -0.06367596     0.05104593
O       2.74121889     2.10029790     2.16914116     0.02334408     0.00367102    -0.06887782
O       2.37385890     3.37618156     7.08389165    -0.02284477     0.03028015    -0.05946707
O       0.18998402     0.54692422     2.17527817     0.02801912    -0.06312601     0.04137601
O       2.39564423     0.64642844     6.69082631     0.18630940    -0.00540189     0.10838721
O       2.76464840     4.88599225     2.48865397     0.13655854    -0.00887237    -0.07626538
