# total energy = -19072.50366894 eV

CRYSTAL
PRIMVEC
        5.17600016     0.00000000     0.00000000
        0.00000000     5.50899976     0.00000000
        0.00000000     0.00000000     9.26300011
PRIMCOORD
22 1
Ti      1.43445400     3.15531201     3.63913401     2.19192051    -0.62879719     1.64218528
Ti      4.53325999     2.95589702     5.87890598    -1.50991072     0.06762852    -1.91153800
Ti      4.40747302     2.15185298     1.37956901    -2.30704144    -1.45787568     1.46845398
Ti      1.21717800     2.83754700     8.19386002     1.43486404     0.89229628    -1.44415679
Ti      1.74400200     0.56623199     1.46019800    -0.90560278    -0.43712884    -0.08817987
Ti      3.22651202     5.28404498     7.97582402    -1.25969292     0.44385613    -0.70654558
Ti      1.31790398     0.22442402     5.81870599     2.28654151     2.11319279    -1.34162192
Ti      3.92707200     4.92119200     3.41624900     1.20183536     1.37387205     3.78987560
O       3.24365202     3.48957698     4.51193399    -0.34907161    -2.31249064     1.37279296
O       0.54868500     1.70200099     0.26068197     1.29923342    -0.24604412    -1.39775016
O       4.68160700     3.56685602     7.61799801    -0.65751385     1.07747646     0.95313735
O       3.13115401     1.02258799     0.29103802     1.14189341     0.83467938    -0.61717503
O       2.13164900     4.40691299     9.10446802    -0.87542161    -1.42258471     1.56049590
O       2.89743701     0.38436901     4.73078598    -0.04150765     0.58957757     0.30543843
O       0.33307998     4.42855402     4.87237799    -0.53882835     0.49929222    -0.44159587
O       5.09025402     3.33976002     2.65019698    -1.02139451     0.55226648    -1.77043273
O       0.59963000     1.96710699     4.90828600     0.54072119    -1.04062045    -0.34851136
O       2.39150302     1.93159502     2.48954200     0.18603301    -0.14355786    -0.33366298
O       1.94482598     4.31200199     6.76335199     1.04572718    -0.98003238     0.85972708
O       4.96365900     0.53205201     2.23982801     0.86266688     0.02524696     0.16117403
O       2.17469302     1.36976002     7.18282000     0.39152825     0.20364559     0.83307219
O       2.51903902     4.57754101     2.50319699    -3.11697960    -0.00389831    -2.54518276
