# total energy = -4988.34803601 eV

CRYSTAL
PRIMVEC
        3.53124854     0.00000000     0.00000000
        0.00000000     4.08956248     0.00000000
        0.00000000    -0.00006452     4.92199457
PRIMCOORD
6 1
Ti      1.76562432     2.04474882     2.46099729     0.00000000     0.00000000     0.00000000
Ti      0.00000000     0.00000000     0.00000000     0.00000000     0.00000000     0.00000000
O       1.76562432     0.79698286     0.95922423     0.00000000     0.16797177     0.23337938
O       1.76562432     3.29251472     3.96277029     0.00000000    -0.16797177    -0.23337938
O       0.00000000     1.24773989     3.42022261     0.00000000    -0.16765527     0.23349122
O       0.00000000     2.84175775     1.50177196     0.00000000     0.16765527    -0.23349122
