# total energy = -19074.55995945 eV

CRYSTAL
PRIMVEC
        7.60600008     0.00000000     0.00000000
        0.00000000     7.60600008     0.00000000
       -1.89786986    -1.89786986     4.85670466
PRIMCOORD
22 1
Ti      3.72317000     6.66689801     1.12883800     0.70266141     1.39412361    -0.04376019
Ti      3.85035199     3.02272898     1.16917200    -0.85317642    -2.27480982     0.38842184
Ti     -0.25911900     6.59224099     1.39317198     0.16297663     0.37599724    -0.51460006
Ti      0.05137401     2.88691802     1.21894101    -0.07399432     0.72235427     0.76209017
Ti      5.65500421     3.00836822     3.51725883     0.42802276    -0.55068268     0.21623731
Ti      5.74077024    -1.14955180     3.79433582    -1.64603859     1.07155598     0.82049717
Ti      1.97049124     2.96408423     3.62999782    -0.72005031    -0.36680168    -0.25164656
Ti      1.78061922    -0.76553977     3.63166981    -1.64885884    -1.06146079     3.41524619
O       3.98544999     4.78862601     0.79609198    -0.20858262     0.49969023    -0.43499456
O       3.59367599     0.91206599     0.77754098     0.81861178     1.43643139     0.41578919
O       0.08452098     4.75557000     0.58791201    -0.04770401     0.09280606     0.57237226
O      -0.01035298     0.91424302     0.87388802     0.22412315     0.05362758     0.37245811
O       5.18383923     4.74598221     3.87826683    -0.44988666    -0.17777128     1.06950012
O      -0.20607776    -0.74585978     3.37711380     2.59217946    -0.41938848    -0.88438217
O       1.65878621     4.81089220     4.11965780     0.88613052    -0.56633993    -0.91491352
O       1.53727325     0.97102623     4.07713381     1.21416767     2.09785384     0.19424203
O       3.87329325     2.43888322     3.21158583    -0.34083610     0.66572133    -0.36957102
O       0.04777423     3.06442423     3.14666182    -1.42324060    -0.98711526     0.52830096
O       5.46104201     6.68908403     1.92378600     0.13520048     0.10359236    -1.56602866
O       5.73900602     3.14956499     1.53999602     0.01883154    -1.06791092     0.01522042
O       2.11299100     6.43432402     1.96804999    -0.67584943    -0.37079409    -2.23783117
O       1.94855901     3.25662998     1.79304800     0.90531250    -0.67067894    -1.55264787
