# total energy = -4987.10241354 eV

CRYSTAL
PRIMVEC
        4.11190484     0.00000000     0.00000000
        1.39639382     3.86753742     0.00000000
       -2.75418684    -1.93379505     5.33245725
PRIMCOORD
6 1
Ti      1.04717682     2.90080141     1.33311437    -0.00040289     0.00040289     0.00000000
Ti      1.70693428    -0.96705954     3.99934299     0.00040289    -0.00040289     0.00000000
O       0.34914129     0.96687903     0.86861377    -0.00068700    -0.00103050    -1.52335888
O       2.40496962     0.96686270     4.46384371     0.00068700     0.00103050     1.52335888
O      -0.34910794    -0.96685567     3.53484239    -0.00103050    -0.00068700    -1.52335888
O       3.10321878     2.90059735     1.79761508     0.00103050     0.00068700     1.52335888
