# total energy = -19914.50455082 eV

CRYSTAL
PRIMVEC
        7.35086243     0.00000000     0.00000000
        0.00003106     5.78261699     0.00000000
        0.00000000     0.00000000    11.70370539
PRIMCOORD
24 1
Ti      2.66435250     3.42677352     4.34199123     0.50555929    -0.80172271     1.18729243
Ti      4.68654105     2.35584367     7.36171423    -0.50555929     0.80172271    -1.18729243
Ti      6.33965676     2.35584568     1.50981474     0.50423543     0.80158105    -1.18763464
Ti      1.01123679     3.42677177    10.19389084    -0.50423543    -0.80158105     1.18763464
Ti      2.66433710     0.53546515     1.50986167     0.50555929    -0.80172271    -1.18729243
Ti      4.68655645     5.24715222    10.19384392    -0.50555929     0.80172271     1.18729243
Ti      1.01122139     0.53546295     7.36166731    -0.50423543    -0.80158105    -1.18763464
Ti      6.33967216     5.24715443     4.34203815     0.50423543     0.80158105     1.18763464
O       2.32660535     2.03615778     5.97231128     0.80891306     1.44885085    -1.22984060
O       5.02428827     3.74645940     5.73139418    -0.80891306    -1.44885085     1.22984060
O       1.34889079     2.03618111     0.12049623    -0.80840270     1.44867242    -1.23003652
O       6.00200290     3.74643614    11.58320890     0.80840270    -1.44867242     1.23003652
O       5.02427287     0.85515084     0.12045826    -0.80891306    -1.44885085    -1.22984060
O       2.32662074     4.92746634    11.58324687     0.80891306     1.44885085     1.22984060
O       6.00198750     0.85512758     5.97234925     0.80840270    -1.44867242    -1.23003652
O       1.34890605     4.92748967     5.73135620    -0.80840270     1.44867242     1.23003652
O       0.26709274     3.51731544     3.16146281    -1.40744553     0.29943850     0.03051001
O       7.08380088     2.26530174     8.54224265     1.40744553    -0.29943850    -0.03051001
O       3.94253187     2.26524781     2.69042714    -1.40775586    -0.29904203    -0.03089927
O       3.40836174     3.51736944     9.01327812     1.40775586     0.29904203     0.03089927
O       0.26707734     0.62600695     2.69038975    -1.40744553     0.29943850    -0.03051001
O       7.08381628     5.15661030     9.01331550     1.40744553    -0.29943850     0.03051001
O       3.40834634     0.62606088     8.54227996     1.40775586     0.29904203    -0.03089927
O       3.94254727     5.15655630     3.16142543    -1.40775586    -0.29904203     0.03089927
