# total energy = -19958.88638126 eV

CRYSTAL
PRIMVEC
        7.60600008     0.00000000     0.00000000
        0.00000000     7.60600008     0.00000000
       -1.89786986    -1.89786986     4.85670466
PRIMCOORD
24 1
Ti      3.76823998     6.74322198     1.29576702     0.24650949     1.42693424     0.83196841
Ti      3.80429198     3.03388398     1.30994299    -1.35788159    -0.98546513    -1.28194634
Ti      0.08241899     6.52136601     1.15701801    -0.54859057     0.65177824    -0.69833399
Ti      0.07425198     2.83910601     1.05112001     0.66384726    -0.57601834     1.91209799
Ti      5.69782624     2.74473021     3.49140979    -0.37808600     0.42492303     0.03423374
Ti      5.77485323    -1.11711080     3.59886082     0.36797231    -0.19157220     0.19391730
Ti      1.80387724     3.08688225     3.78743879     0.67867327    -2.99605235    -1.95697327
Ti      1.76662724    -0.91045777     3.68312483     0.44635164     1.93724879     1.23203530
O       3.64218001     4.93458601     0.95760100     0.53870133    -0.86646029    -0.55520628
O       3.65947500     1.10426200     0.78058000     0.27034903    -1.39466612     0.56556783
O      -0.07414302     4.68076598     0.56458000     0.43734095     0.06872741     1.65599880
O       0.43262801     0.82352903     0.73427799    -1.51279729     0.56259718    -0.72285718
O       5.85808423     4.67159920     4.02179679    -0.75947176     0.35300745    -0.96765020
O       5.83606025     0.94309123     4.07848379     0.17104861    -1.96600942    -2.77709763
O       1.85825423     4.90535325     4.20620379    -0.00343577    -1.10798029    -0.46600851
O       1.77117922     1.16300121     4.22332881    -0.11182477    -0.50850217    -0.44756932
O       3.78654623     2.83313721     3.37360080     0.97434150     0.61350169    -0.13482124
O       3.58335121    -0.91495879     3.18649579     2.51765086     0.42003819     0.87000790
O       0.09977822     2.80856724     2.92297383    -1.63868935     0.65930386     2.71321521
O       0.00332323     6.28280121     3.06284580    -1.82964680     1.13780485     1.72219496
O       5.72303503     6.59936202     1.57919202    -0.95360169     0.54349027     0.74473445
O       5.65582999     2.83055699     1.54721998     1.31510716    -0.20940692     0.07642941
O       1.77134798     6.32007201     1.76930001     1.53331599     0.81681869    -1.64425065
O       2.02781601     2.74868798     1.81617500    -1.06718381     1.18595905    -0.89968615
