# total energy = -19075.33585771 eV

CRYSTAL
PRIMVEC
        7.60600008     0.00000000     0.00000000
        0.00000000     7.60600008     0.00000000
       -1.89786986    -1.89786986     4.85670466
PRIMCOORD
22 1
Ti      3.85449301     6.61756800     1.25166200     0.18434765    -0.31988546    -2.03673458
Ti      3.83137199     2.76519000     1.16391599     0.87386352     0.62824055     0.84908734
Ti      0.34049201     6.68118600     1.02564002    -1.37274437     0.95724109     0.36319314
Ti      0.03131999     2.88047799     1.17229102    -1.20422032    -0.59642905    -0.87858047
Ti      5.68064121     2.97104821     3.60386181    -0.08754224    -1.09009595    -0.79528673
Ti      5.96120522    -0.86664178     3.59074181    -0.12145047     0.27910981     1.13858492
Ti      1.90667421     2.75722223     3.64663981    -0.37970014     0.30712276     0.18019120
Ti      1.25887923    -1.01954178     3.97881580     1.88824432    -0.53868385    -1.92028464
O       3.94693800     4.61021199     0.75245301    -0.50680807     2.00707406    -0.34116392
O       4.16393899     0.87098601     0.82137803    -1.74666030    -0.28239568     0.59186971
O       0.09040501     4.81800000     0.73846299     0.14947885     0.14457833     0.04201955
O       7.35439900     0.95780601     0.58729298     1.04332500     0.34374068     1.84788132
O       5.46683021     4.81751321     3.99936084     0.75959466    -0.18963821    -1.04094133
O       5.47929022     1.00705124     4.01023580     1.01480091    -0.20031626    -0.10856307
O       1.90718725     4.77799923     4.02618483    -0.69722199    -0.46722721     1.04492628
O       1.83463821     0.80104222     4.07102181    -0.61251439     0.48655086    -0.65517929
O       3.71451425     2.83251124     3.09858284     0.65968875    -0.13098464     0.72991949
O      -0.02824579     2.81662524     3.27742681     0.20686718     0.20640541    -0.46758845
O       5.65816398     6.61820603     1.79376001    -0.26232615    -0.36287355    -0.33883296
O       5.74913003     2.93159201     1.52878403    -0.46220584     0.01973888     1.26667373
O       1.96758802     6.72510602     1.95338903     0.41155432    -0.36365054     0.43960661
O       1.86261999     2.91614803     1.56144897     0.26162913    -0.83762150     0.08920214
