# total energy = -19072.40236077 eV

CRYSTAL
PRIMVEC
        5.93400000     0.00000000     0.00000000
        0.00000000     9.29699974     0.00000000
        0.00000000     0.00000000     4.64899994
PRIMCOORD
22 1
Ti      4.42126100     7.11458302     2.34444302     0.05829644     1.09213895    -0.77683623
Ti      4.47164402     2.30432001     2.31747499    -0.99896239    -0.54935213    -0.16872151
Ti      1.41247002     7.03306998     2.45204201    -0.74175042     1.29402385    -0.81836650
Ti      1.54508602     2.41978903     2.30412702     0.11167848     0.27268565     0.43441041
Ti      3.05820799     4.89968798     4.44432202     0.13769342    -0.53552036     0.78956036
Ti      2.99764402     0.07721702     0.23035498     0.86328909    -1.12190668    -0.79761743
Ti      5.84015502     4.61281401     4.41258101     0.18600447    -0.42651172     0.49507638
Ti      0.01758202     9.29051801     0.04007798     0.30757759    -1.10577943    -0.56118178
O       4.46721798     5.53040498     0.84858001     0.31820576    -0.27445225    -0.15441074
O       4.64000901     0.51169599     1.18196702    -1.81287086     2.88421934     1.15701151
O       1.60415702     0.86328500     1.13200999    -2.13792321    -0.88967324    -0.22457489
O       4.43428702     8.18125899     4.01537898     0.34509617     0.61941523    -2.89195143
O       4.38817599     3.82819100     3.55828102    -0.57148085    -1.01885426     0.29002260
O       1.46191200     8.13439701     3.87546600     0.02877528     1.64422571    -0.47026111
O       1.53789598     3.89937698     3.74826301    -0.62061208    -1.07851338    -0.37808369
O       2.85997798     5.99434701     3.01632202     0.77743452    -0.36474197     0.66308235
O       3.00864498     1.34361199     3.55012698    -0.02110517     0.75414058    -1.52923976
O       5.72640102     5.97845698     3.08355902     1.56230236    -0.15348720     0.27763476
O       2.91012498     7.57785198     1.21987702    -0.81808728     0.52818809     1.27863142
O       2.99769398     2.76228302     1.25471598     0.80171089     1.82900891     0.47621193
O       0.02759897     7.95788300     1.29992402     0.83644727    -3.04619299     2.77194180
O       5.82823202     3.15482099     1.39726099     1.38828027    -0.35306093     0.13766154
