# total energy = -19515.27080787 eV

CRYSTAL
PRIMVEC
        5.93400000     0.00000000     0.00000000
        0.00000000     9.29699974     0.00000000
        0.00000000     0.00000000     4.64899994
PRIMCOORD
23 1
Ti      4.39003102     7.17203902     2.06550999    -0.89348208     0.36904471     1.77960874
Ti      4.56479001     2.35151003     2.08915897    -0.57971841    -0.31361454     2.39370179
Ti      1.19672800     6.96193200     2.30727599     1.06509556    -0.07712335     1.28844686
Ti      1.61096001     2.25992998     2.56909300    -0.20649154    -1.09911667    -0.53415999
Ti      2.91014700     4.65045799     0.34299899     1.76838073    -2.62401024    -1.11664312
Ti      3.05434801     0.15612502     0.04353700    -0.90693409    -1.54631318    -0.06017592
Ti      5.91178202     4.52600100     0.11872801    -1.98895652    -1.09343093    -2.93565917
Ti      0.16614102     9.26049302     4.35423398    -1.16970582     0.15371397     1.02955956
O       4.46230700     5.54898402     0.92261498    -0.06687390     0.02507958     0.00786321
O       4.41400498     0.85987699     0.88949002     2.35876203     0.76520352     0.82449935
O       1.42640299     5.45381398     0.84066400    -0.64713199     2.39871287     1.39928613
O       1.64782599     0.89419901     0.95947498    -2.52783449    -0.11412977    -0.62398769
O       4.19990298     8.52835502     3.59128099     2.31168948    -1.77408781    -0.60730662
O       4.50755399     3.70859498     3.52414998     0.97041465     1.00716319     2.40454645
O       1.54442301     8.23838399     3.75318801    -0.42120110     0.15634576    -0.19722631
O       1.56683901     3.45815301     3.93147698    -0.85152243     2.35586568     0.50984892
O       3.03347900     1.50220398     3.44350898     0.19329355     0.38193726    -1.96966013
O       5.69488301     6.34613499     3.36371900     0.84476994    -1.44270308    -0.68395663
O       5.92031601     1.16006898     2.95301999     0.45916449     0.49057695     1.44833020
O       2.82170502     7.78663098     1.39214199    -0.10705692    -0.74628174     0.40387341
O       2.96224100     3.22896502     1.61543500    -0.28875839     0.93854402    -1.77238059
O       5.92042401     7.95276898     1.47515202     0.10096700     1.22359925    -2.45391190
O       0.09756801     3.19390401     1.44944602     0.58313053     0.56502507    -0.53449629
