# total energy = -19946.39081905 eV

CRYSTAL
PRIMVEC
        6.08668505     0.00000000     0.00000000
        0.00002395     4.31871562     0.00000000
        0.00000000     0.00000000     9.45644782
PRIMCOORD
24 1
Ti      2.20614487     2.55926686     3.50827469    -0.05170850     1.54779774    -2.26707182
Ti      3.88056424     1.75944876     5.94817323     0.05170850    -1.54779774     2.26707182
Ti      5.24938247     1.75945026     1.21991146    -0.04942871    -1.54794300     2.27101821
Ti      0.83732664     2.55926556     8.23653652     0.04942871     1.54794300    -2.27101821
Ti      2.20613289     0.39990915     1.21994937    -0.05176687     1.54788207     2.26960796
Ti      3.88057621     3.91880662     8.23649861     0.05176687    -1.54788207    -2.26960796
Ti      0.83731466     0.39990755     5.94813527     0.04943565     1.54764810     2.26860677
Ti      5.24939445     3.91880823     3.50831260    -0.04943565    -1.54764810    -2.26860677
O       1.92648273     1.52069320     4.82555296     1.46386276    -1.25414396     1.84301628
O       4.16022637     2.79802246     4.63089497    -1.46386276     1.25414396    -1.84301628
O       1.11691237     1.52071061     0.09735943    -1.46265382    -1.25455226     1.84302991
O       4.96979684     2.79800506     9.35908818     1.46265382     1.25455226    -1.84302991
O       4.16021445     0.63866460     0.09732873    -1.46342258     1.25408226     1.84312787
O       1.92649466     3.68005101     9.35911888     1.46342258    -1.25408226    -1.84312787
O       4.96978486     0.63864725     4.82558361     1.46221596     1.25474303     1.84327416
O       1.11692420     3.68006847     4.63086427    -1.46221596    -1.25474303    -1.84327416
O       0.22115804     2.62688765     2.55442249     0.65671964    -0.21842301     1.25997291
O       5.86555107     1.69182802     6.90202544    -0.65671964     0.21842301    -1.25997291
O       3.26450737     1.69178775     2.17383155     0.65676592     0.21887372    -1.26008964
O       2.82220174     2.62692792     7.28261622    -0.65676592    -0.21887372     1.26008964
O       0.22114606     0.46752979     2.17380132     0.65657797    -0.21863384    -1.26003462
O       5.86556305     3.85118582     7.28264640    -0.65657797     0.21863384     1.26003462
O       2.82218981     0.46757006     6.90205557    -0.65693690    -0.21870532    -1.26029610
O       3.26451929     3.85114560     2.55439231     0.65693690     0.21870532     1.26029610
