# total energy = -19075.76233648 eV

CRYSTAL
PRIMVEC
        7.60600008     0.00000000     0.00000000
        0.00000000     7.60600008     0.00000000
       -1.89786986    -1.89786986     4.85670466
PRIMCOORD
22 1
Ti      3.86351501     6.48415902     1.27730497     0.67969888     0.30101844    -0.82766644
Ti      3.77915098     2.68574198     1.18687498     0.67027553     0.56420643     0.36106015
Ti      0.14962900     6.71751402     1.11101801    -1.03510646     0.64628250    -0.41376110
Ti     -0.00655100     2.95559200     1.11872701    -0.21305120    -0.88990001    -0.60890585
Ti      5.77930922     2.95681821     3.50767881    -1.66020949     0.51949159     0.48182157
Ti      6.05191424    -0.77377176     3.62203582    -0.80026156    -1.86717078     0.38156059
Ti      1.86168822     2.79770223     3.63213580     1.09889556    -0.05636477    -0.18739415
Ti      1.25830920    -1.11176976     3.92462879     1.15124709     0.90568942    -1.29451647
O       3.87733399     4.65586703     0.73261902    -0.26234544     0.56689503     0.02987854
O       4.05222898     0.80808298     0.83411199    -1.07156986     0.09677842     1.40706167
O       0.27115302     4.83950899     0.61096302    -0.29027483    -0.21846440    -0.08751139
O      -0.18251699     1.05497401     0.82097098     1.41260574    -0.25737369     0.05370265
O       5.65277325     4.94611323     3.98826283     0.57338938    -0.60296917    -0.46045801
O       5.45365020     0.92214824     4.00970879     0.71790858     1.93340139    -0.68113536
O       1.88613123     4.72146225     4.17382079    -0.49094616    -1.19165302    -0.01105446
O       1.71756325     0.71952723     4.07321980    -0.09949762     1.59833819    -0.05976917
O       3.83188920     3.03568525     3.14880382    -0.46784453    -0.90161885     0.42522154
O       0.02782223     2.89922123     3.08862679     0.10088190     0.00332315     0.85011141
O       5.89367400     6.59143400     1.70606100    -0.87160789    -0.22763039     0.45865746
O       5.72358198     3.01274499     1.52768201     0.13217301    -0.08948034     0.45273081
O       1.79785499     6.59687198     2.08176399     1.04592644    -0.13105200    -0.49184219
O       1.94155202     2.92011802     1.58222299    -0.32028630    -0.70174713     0.22220819
