# total energy = -19957.60690971 eV

CRYSTAL
PRIMVEC
        5.93400000     0.00000000     0.00000000
        0.00000000     9.29699974     0.00000000
        0.00000000     0.00000000     4.64899994
PRIMCOORD
24 1
Ti      4.47423302     6.66397398     2.26756098     0.44484883     3.87093377     1.51744996
Ti      4.51524801     2.54110101     2.30600300    -1.76350669    -4.12374170     1.03904796
Ti      1.54002200     6.76099001     2.01100701    -0.18521643     4.33256909     2.45614722
Ti      1.46400802     2.40566698     2.31006201     1.63692095    -4.36623101     1.59055494
Ti      2.86298900     4.63380399     4.63984603     2.12386158    -2.82474842    -1.21827320
Ti      2.93879798     9.26910200     0.18866799     1.60790089     1.01340583    -1.75408487
Ti      5.93385501     4.68138501     0.00796100    -1.51555300    -2.05317473    -1.79725783
Ti      5.91634898     9.26672202     0.19373100    -1.46238411     0.19309712    -1.30090823
O       4.45987999     5.60993201     0.79125398     0.38638167    -0.88170282    -0.75335459
O       4.42195502     0.83289298     1.01356102     0.43662824     2.48810579     1.01051796
O       1.48929698     5.67965101     0.62104099    -0.80669960     0.05641774    -0.15423205
O       1.44831601     0.91034198     1.03246302    -0.06355435     1.62772796     1.21459961
O       4.37143600     8.38072002     3.96787998     1.00941008    -0.50102103    -1.56514215
O       4.40347599     3.88268498     3.63705598     0.68307217     1.38204739     1.55935536
O       1.48656298     8.45815199     4.10993999    -0.92128548    -1.63499699    -2.68864291
O       1.56535203     3.81894902     3.62756101    -0.65369551     0.89746369     2.15363471
O       2.91496002     6.00651099     3.09465999    -0.27287411     0.14013803    -0.09022750
O       3.08693300     1.64554498     3.20088597    -0.68822029    -0.45137455     0.42499117
O       0.13979302     5.87277499     3.03272302    -0.44194040     0.44547644     0.17893933
O       5.85320199     1.66619098     3.30657701     0.47633303    -0.25346381    -0.06863974
O       3.09208200     7.81234100     1.32249899    -0.98152080    -2.25392654     2.86783370
O       2.84747003     3.31471602     1.45476800     1.33411661     2.38687525    -2.65901299
O       5.81956399     7.95931099     1.55041298     1.00061716    -2.27550787     1.20612191
O       0.13192902     3.31203600     1.46857397    -1.38364019     2.78563164    -3.16941753
