# total energy = -19075.89299540 eV

CRYSTAL
PRIMVEC
        7.60600008     0.00000000     0.00000000
        0.00000000     7.60600008     0.00000000
       -1.89786986    -1.89786986     4.85670466
PRIMCOORD
22 1
Ti      3.84733901     6.61247302     1.22153699    -0.17713030    -0.00278708    -1.00443653
Ti      3.82323901     2.81632900     1.18793900     0.71086966     0.17544392     0.08469757
Ti      0.25530601     6.66991400     1.01433902    -0.70768741     0.24860957     0.62438492
Ti      0.01752201     2.82935401     1.22925600    -1.36962125     0.09672057    -1.31323642
Ti      5.65597424     2.92745220     3.57475383     0.28268673    -0.71280082     0.14899960
Ti      5.97918724    -0.85986376     3.59106879    -0.10590172     0.05151618     1.58641572
Ti      1.89817621     2.78084222     3.61688782    -0.55164761     0.06043355     0.42868070
Ti      1.41040025    -1.01541076     3.93183380     0.25920483    -0.18471300    -1.48937711
O       3.90775100     4.67272000     0.69958598    -0.41519629     0.56572390     0.49227594
O       4.17753201     0.88632099     0.80829301    -1.56200874     0.46842457     0.93558391
O       0.01296998     4.79969603     0.71482300     0.20716157    -0.08557612     0.27715165
O       7.29735698     0.86751302     0.64052599     1.14103595     1.21854471     1.02093608
O       5.62428124     4.79737124     3.93669980     0.49540548     0.18798936    -0.45809516
O       5.50035221     0.98961422     3.99739881     0.94574542    -0.77531593     0.14390470
O       1.97972724     4.76447023     4.15239482    -0.52763350    -0.62402651    -0.35837026
O       1.75042224     0.81238524     4.01284883     0.06134500     1.32575410     0.41216727
O       3.77195522     2.90581822     3.14582884    -0.36487181    -0.30011238    -0.03833748
O      -0.02027077     2.86372323     3.26819981     0.28610398    -0.06522763    -0.46767458
O       5.62710101     6.56454502     1.82764598     0.11707677    -0.15421997    -0.65383460
O       5.72948702     2.92335902     1.56131499    -0.48790120     0.02323918     0.59296937
O       1.91314203     6.75159002     2.03358197     0.69634113    -0.73221780    -0.79415853
O       1.82957197     2.97772002     1.61795600     1.06662357    -0.78540160    -0.17064649
