# total energy = -19920.02762788 eV

CRYSTAL
PRIMVEC
        6.33156756     0.00000000     0.00000000
        2.28849268     6.33821115     0.00000000
        0.00000000     0.00000000    11.51511868
PRIMCOORD
24 1
Ti      3.65104745     3.75601796     4.27202692    -0.11442725    -2.21022137     0.67925717
Ti      4.96901302     2.58219302     7.24309189     0.11442725     2.21022137    -0.67925717
Ti      6.39290308     2.58219518     1.48548651    -0.28940451    -0.92784591     0.09443125
Ti      2.22715743     3.75601599    10.02963243     0.28940451     0.92784591    -0.09443125
Ti      2.50680127     0.58691255     1.48553268    -0.11442725    -2.21022137    -0.67925717
Ti      6.11325923     5.75129855    10.02958626     0.11442725     2.21022137     0.67925717
Ti      1.08291112     0.58691022     7.24304572     0.28940451     0.92784591     0.09443125
Ti      7.53714939     5.75130095     4.27207309    -0.28940451    -0.92784591    -0.09443125
O       2.80979834     2.23179182     5.87607693     1.83826385     2.12073975    -0.77603301
O       5.81026213     4.10641916     5.63904188    -1.83826385    -2.12073975     0.77603301
O       1.96766615     2.23181739     0.11855463    -0.39795601    -0.47409180     1.37145059
O       6.65239440     4.10639364    11.39656386     0.39795601     0.47409180    -1.37145059
O       4.66601593     0.93731363     0.11851727    -1.83826385    -2.12073975    -0.77603301
O       3.95404454     5.40089735    11.39660123     1.83826385     2.12073975     0.77603301
O       5.50814819     0.93728805     5.87611429     0.39795601     0.47409180     1.37145059
O       3.11191222     5.40092294     5.63900452    -0.39795601    -0.47409180    -1.37145059
O       1.62203142     3.85525921     3.11052084     0.58104279     2.32304168     2.25387898
O       6.99802905     2.48295177     8.40459797    -0.58104279    -2.32304168    -2.25387898
O       4.29231733     2.48289272     2.64707517     0.73960381     1.92731867     1.22116544
O       4.32774314     3.85531825     8.86804345    -0.73960381    -1.92731867    -1.22116544
O       0.47778522     0.68615368     2.64703838     0.58104279     2.32304168    -2.25387898
O       8.14227525     5.65205730     8.86808024    -0.58104279    -2.32304168     2.25387898
O       3.18349694     0.68621272     8.40463464    -0.73960381    -1.92731867     1.22116544
O       5.43656353     5.65199826     3.11048411     0.73960381     1.92731867    -1.22116544
