# total energy = -19073.92275114 eV

CRYSTAL
PRIMVEC
        5.17600016     0.00000000     0.00000000
        0.00000000     5.50899976     0.00000000
        0.00000000     0.00000000     9.26300011
PRIMCOORD
22 1
Ti      1.89974299     3.55017302     3.37301601     1.17994473    -0.76077171    -0.62435998
Ti      3.48457800     2.12832100     5.94602402     1.33112051     0.88331182    -1.94102137
Ti      4.47165900     2.21686199     1.31862202    -0.59828899     0.52638832    -1.85739981
Ti      0.61079601     3.18448000     8.00681301     0.55174454    -0.27329705     1.35978395
Ti      1.82601998     0.52847302     1.30694202     0.00988512     1.49929926    -2.22457996
Ti      3.15648499     5.06122500     8.06480200     0.50097424    -0.20554126     1.62320539
Ti      0.75875498     0.08428201     5.98626298    -1.38431974     0.67693726    -0.37499811
Ti      4.46565500     4.98531198     3.29167702    -0.56029989    -1.13692244     2.58135099
O       3.67635099     3.29923399     4.28777101    -0.98630074     0.17385086     1.55834363
O       0.91899699     1.86231497     0.10328302    -0.62489040     0.27976261     0.43070133
O       4.32550601     3.65706899     9.04473502    -0.87307394     0.35916345    -0.41696881
O       3.47801901     0.89260798     0.25802402     0.00076516    -0.45123289    -1.36934048
O       1.70949398     4.67055402     9.23234799    -0.24079753    -0.00101044    -0.61322684
O       4.34204301     0.74906098     4.81957700    -0.48737104    -0.25440715     0.75956329
O       1.15409902     5.07753398     4.23706101     0.11001652    -1.41620966     1.35331479
O       0.28843198     3.71734799     2.26044598    -0.08432630    -1.78028391     0.47009322
O       5.02358801     1.70760403     6.98185801    -0.20574309    -0.02203488    -0.39533425
O       2.64000000     2.19626101     2.09439402     0.34505554    -0.01833917     0.85166590
O       2.16582400     3.89211201     6.93170899    -0.93410629    -1.59602882    -1.01198144
O       0.04905198     0.66665798     2.19874698     1.01492432     2.47595424    -1.16859665
O       2.29108402     0.82581301     6.67767401     1.27041005     1.11591472     0.75080200
O       2.80565698     4.88572199     2.39993001     0.66467746    -0.07450288     0.25898295
