# total energy = -19518.69466532 eV

CRYSTAL
PRIMVEC
        7.60600008     0.00000000     0.00000000
        0.00000000     7.60600008     0.00000000
       -1.89786986    -1.89786986     4.85670466
PRIMCOORD
23 1
Ti      3.78135198     6.64409099     1.19625597    -0.25775422    -0.33640712     0.17854570
Ti      3.73361400     2.78434400     1.16948903     1.33117090     0.61762240     0.47523671
Ti     -0.02191000     6.66941303     1.14125102    -0.08974079    -0.38001202     0.09602148
Ti      0.05276903     2.82531099     1.16057101    -1.18943519     0.67405094     0.35604496
Ti      5.69248922     2.87579323     3.70559380    -0.54115160    -0.08347038    -0.05053608
Ti      5.68439524    -0.91349980     3.56633880    -0.68302615    -0.08514828     0.07587020
Ti      2.09531923     2.85071822     3.71654179    -0.10473933     0.18005365     0.88022032
Ti      1.82053421    -0.97991678     3.60524682     0.86055163    -0.19088263    -0.56840504
O       3.89876599     4.67624300     0.82451499    -0.55354509     0.47216733     0.14910347
O       3.67224500     0.91819402     0.70736203    -0.27876296     0.80694540     0.94690911
O      -0.26719101     4.76918700     0.87317199     1.18704175    -0.07454351    -0.31426863
O       0.06263702     1.01243901     0.79280499     0.17366446    -1.15758538    -0.20069730
O       5.72170721     4.73593922     4.00138484     0.52317572     0.66277819     0.47901264
O       5.55951222     0.92462220     4.07360282     0.91340942     0.45615732    -0.29092660
O       1.94416721     4.78308224     4.01946180    -0.55303498    -1.04204073     0.50253078
O       2.10417321     0.92545624     4.02769384    -1.12708360    -0.00633289     0.66501325
O       3.85466520     2.93286521     3.46035682    -0.01957973    -0.26867087    -1.40175516
O       3.77993723    -0.98582076     3.22933581     0.17331761    -0.12357523    -0.69559782
O      -0.01400076    -1.01390478     3.15572683    -0.70622059     0.57837141     0.19979227
O       5.62102600     6.80866501     1.54002597     0.77338478    -0.04739265     0.66173072
O       5.78054400     2.78927799     1.83703702     0.13171458    -0.32731981    -0.61347058
O       1.83741099     6.56571498     1.56672799     0.45146686     0.12185182     0.00619893
O       1.88456201     2.99235601     1.84034798    -0.41482374    -0.44661750    -1.53657332
