# total energy = -19077.75562880 eV

CRYSTAL
PRIMVEC
        7.60629642    -0.00000847    -0.00005503
       -0.00000847     7.60629642    -0.00005503
       -1.90157093    -1.90157093     4.85369047
PRIMCOORD
22 1
Ti      3.80306381     6.66344113     1.15100444     0.00002880     0.00536358     0.03109056
Ti      3.80297677     2.84863709     1.21315137    -0.00006453     0.00238136    -0.01233359
Ti     -0.00008228     6.66345131     1.15099669     0.00006711     0.00535741     0.03122169
Ti     -0.00016356     2.84865560     1.21317338    -0.00001697     0.00234330    -0.01239632
Ti      5.70490700     2.84792940     3.62726544     0.00012830     0.02108614    -0.01620644
Ti      5.70480461    -0.94070636     3.64734536     0.00001286    -0.02589565    -0.00226257
Ti      1.90176574     2.84793629     3.62731826    -0.00006582     0.02113885    -0.01635376
Ti      1.90163576    -0.94070117     3.64739438    -0.00006891    -0.02603603    -0.00236619
O       3.80319330     4.75764050     0.77913757     0.00003702     0.00577496    -0.00814294
O       3.80319723     0.94069768     0.83588066    -0.00003805    -0.00063609    -0.00610252
O       0.00004736     4.75765118     0.77914430     0.00001748     0.00550833    -0.00810206
O       0.00005515     0.94068915     0.83588604     0.00001388    -0.00035198    -0.00619816
O       5.70464697     4.76847453     4.00375195    -0.00001774     0.02312888     0.02331811
O       5.70464421     0.93344885     4.04592116    -0.00009719    -0.02468826     0.00755365
O       1.90153593     4.76848468     4.00381812    -0.00001311     0.02299107     0.02340913
O       1.90152275     0.93345092     4.04595475    -0.00009590    -0.02454453     0.00759298
O       3.80315002     2.85372701     3.22350913     0.00000746     0.00071014    -0.02474508
O       0.00000948     2.85372850     3.22354285     0.00003034     0.00073945    -0.02471037
O       5.70470860     6.65623502     1.75304967    -0.00013730    -0.01293677     0.02443629
O       5.70472757     2.84948908     1.62384264    -0.00014578     0.00573151    -0.01650160
O       1.90154331     6.65622569     1.75310502     0.00029156    -0.01289280     0.02429539
O       1.90156269     2.84950186     1.62387490     0.00012624     0.00572739    -0.01649620
