# total energy = -19957.97708729 eV

CRYSTAL
PRIMVEC
        5.93400000     0.00000000     0.00000000
        0.00000000     9.29699974     0.00000000
        0.00000000     0.00000000     4.64899994
PRIMCOORD
24 1
Ti      4.54928999     6.90731403     2.06136801    -1.17343083     2.37812835     2.24585610
Ti      4.38105999     2.49067798     2.38718001    -0.49292514    -1.66099394     1.18144908
Ti      1.48531301     6.84034903     2.41815598     0.19575075     1.15517317     0.93802928
Ti      1.42116202     2.36945300     2.39334302     0.85047470    -1.37936573     0.88167788
Ti      2.96505199     4.93962102     0.06168000     0.28689125    -2.57510964    -1.71116698
Ti      2.92872599     9.09391803     0.02825701     0.82159246     1.34131468    -0.87696248
Ti      0.07203801     4.65546199     4.56438800    -0.26810985    -2.59768933    -0.76967364
Ti      5.86754502     9.19385199     0.09514898    -0.75996361     1.72870422    -0.24207202
O       4.52554702     5.59305301     0.83445400     0.04185449    -0.07618747    -0.20640053
O       4.40659401     0.72353400     0.98815602     1.35934480     0.08676551     0.13781632
O       1.40507397     5.75464299     0.74152899    -0.06392613    -1.47465754    -0.44929659
O       1.61254199     0.62787198     0.85624001    -2.74102736     2.48110904     1.69701768
O       4.41624101     8.33017100     3.80883401     2.08704131    -1.17064967    -1.30747586
O       4.41129998     3.95887402     3.69001699    -0.54854918    -0.55539731     0.81216911
O       1.53331003     8.26923598     3.61315299    -1.18370960     0.16796278     0.58738262
O       1.62424998     3.78503098     3.61705298    -0.42110777     1.74246323     1.91482362
O       3.01996001     6.14979002     3.16483599     0.84257627    -1.52840673     1.07321408
O       3.03706101     1.48160100     3.41378901    -0.34115852     0.53073605    -1.67388442
O       5.75909401     5.80713902     3.09680401     1.03840082     2.27596116    -0.94350805
O       5.80279601     1.75725498     3.39571099     2.13187854    -2.06882813     0.28914148
O       2.77315999     7.72019902     1.38867800     2.51983913    -0.25426857    -0.40003629
O       3.04560600     3.20733299     1.40310797    -1.48162369     1.47098523    -1.16173848
O       0.17161499     7.89644002     1.46878199    -2.09712647    -0.74813190    -0.02411027
O       0.11167101     3.29905301     1.49735201    -0.60298614     0.73038280    -1.99225165
