# total energy = -39022.94252915 eV

CRYSTAL
PRIMVEC
        5.93200024     0.00000000     0.00000000
        0.00000000     9.29399984     0.00000000
        0.00000000     0.00000000     9.29399984
PRIMCOORD
46 1
Ti      4.54357302     7.03117299     6.92292200    -2.51566468     0.89989287     1.82420043
Ti      4.43616200     7.17952799     1.77800598    -0.41031634    -0.01778176     2.07031988
Ti      4.35884301     2.81025902     6.94574198    -1.41507374    -0.97825549    -0.70833610
Ti      4.59514499     2.23406099     3.14034799     0.55776324    -5.49170793     1.55861797
Ti      1.56009899     7.46657802     6.58617101     0.02500810    -1.53874359     3.30966020
Ti      1.64876899     6.62108999     2.37214101    -0.57439443    -1.53482497    -0.28993030
Ti      1.03159602     2.06536500     8.32184598     1.31945849    -2.56628792    -0.17688502
Ti      1.58885998     2.32650598     4.20216299     0.87536736    -1.36348274    -1.72823782
Ti      2.92964998     4.65826700     4.59006299     0.18940656     1.42592714     0.02123989
Ti      2.82925998     4.67755202     8.94066702     1.03317556     0.65701095    -0.83877618
Ti      2.97465598     9.02964299     3.76980401     0.51867655     1.73952651     2.09307801
Ti      3.03775301     0.19460901     0.22332201     0.29817711     0.38329866    -1.63577295
Ti      0.01661098     4.70627402     4.54467201     1.79719921     2.25531211    -1.98593573
Ti      0.01605598     5.13719702     0.00640400    -0.44684710     2.34118133    -2.15128009
Ti      0.14083100     9.03050201     4.35106903    -2.40013495     3.64700063    -1.43125704
Ti      0.14017202     8.93569900     9.23357102    -2.27917273    -0.92381442    -1.11943611
O       4.65614098     4.76195701     5.76383200    -2.01366200     1.88265011     0.90301367
O       4.47658601     5.67012698     0.77345399    -2.85368208    -1.97303342     0.39016916
O       4.28935802     1.03216102     4.74578900     1.71169071    -1.09692223     0.07185182
O       4.69608000     0.39512998     0.95030301    -1.57438861     1.31190999     2.07451695
O       1.51629401     5.59767299     5.62325199    -0.56752727    -0.31301907    -1.16918980
O       1.65192198     5.49322398     0.74636001     0.10400168     1.40590750     2.78339992
O       1.66954602     0.64091901     4.98528097    -0.25797327    -1.29361453     1.55491378
O       1.14569700     1.05181001     0.60065502     0.87443200     0.48124487     2.07256548
O       4.28092801     8.52517102     8.28977102     0.32973048    -1.30845391    -1.15304764
O       4.55330999     8.18314101     3.43065500     0.80446531    -0.29304673    -0.56740231
O       4.44062503     4.25869098     8.12286999     1.74556989    -1.73076856    -0.02399817
O       4.11275400     3.83766501     3.28227698     1.32998845     2.39477317     0.01981601
O       1.52527701     9.19535802     8.03090999     0.90460519    -3.19473493    -2.27584417
O       1.29852699     8.35074700     3.10736199     0.72583658    -0.85811783     1.03666841
O       0.97220698     3.61189699     9.06455001     0.19984164     1.61152435     0.26567990
O       1.51040702     3.96731402     3.33669598     1.08782207     0.93691163     0.09616829
O       2.97534899     6.34281298     8.11951400    -0.41625276    -0.09430553    -2.90178410
O       3.32151600     5.99290701     3.04193801    -2.02786375     1.73436528     0.34752792
O       2.78859900     2.01595598     8.34819298     4.90797293     0.63800740    -1.25873930
O       2.91380901     1.43742200     2.92533100    -0.37039660    -0.24312618    -2.42203330
O       0.10492198     6.52735502     7.79132902     0.84539909    -1.26318474     1.33386953
O       0.04959597     5.88710802     2.98052302    -0.31180242     0.51224776     0.85741257
O       5.40652099     1.40099100     7.91229999    -2.72756120     1.03455265    -2.44474669
O       2.91469401     7.86324198     5.63601701     2.85329848    -0.02873543    -0.98497842
O       2.69159600     7.83816300     1.22203701     1.66020229     0.93344860    -0.17843771
O       2.83220300     2.98679499     5.48673902     0.52820146     0.24697306     1.40361382
O       5.92016398     8.07411398     5.88972501    -1.38436447    -0.76469316     0.19805575
O       0.19638800     7.47372397     1.12981698     0.26176694     0.66766149    -1.33573384
O       0.12253099     2.93194000     4.97256601    -3.00814296    -0.65162346     2.83452222
O       0.27476798     1.35868497     3.04743198     0.06616402     0.38095124    -0.33909829
