# total energy = -19517.05860013 eV

CRYSTAL
PRIMVEC
        5.17600016     0.00000000     0.00000000
        0.00000000     5.50899976     0.00000000
        0.00000000     0.00000000     9.26300011
PRIMCOORD
23 1
Ti      1.90872498     3.24987498     3.44282602    -0.12702823     0.26502941     2.50113100
Ti      3.33608801     2.25806399     5.92230598    -0.21475481    -0.15731249    -2.65201676
Ti      4.26756703     2.07083399     1.53085099     0.22854262     0.37976082    -0.92462098
Ti      0.83961300     3.34952001     7.84980802     0.08317136     0.72397664     0.99756397
Ti      1.85720402     0.28248900     1.27109799     0.82258028    -0.53897541    -0.44128400
Ti      3.44977798     5.15072300     7.91802802    -1.66535170     0.84544203     0.39124414
Ti      0.71873299     0.59086000     5.83447002     0.48704528    -0.47869408    -2.96146328
Ti      4.53031702     4.86801498     3.37615900     0.34588138     0.13746125     3.05160542
O       1.62907100     1.97982000     4.82154200     0.42359609     0.44842190    -0.33301275
O       3.55486899     3.55152401     4.56138301    -0.18333926    -0.03654156    -0.45155402
O       4.84700198     3.06830199     0.00665398     0.47805079    -0.08007112    -0.27495645
O       3.19320999     0.94937902     0.18872599     1.72039930     0.83268703    -1.15076912
O       1.75725498     4.76300801     8.88040099    -0.33089210    -0.78741272     1.33577652
O       4.34037001     0.66709301     4.73318099    -0.61389225     0.63094252    -0.35628510
O       1.04532002     4.69014998     4.43377498     0.22758977     0.17766561    -0.00639742
O       0.06703998     3.19357502     2.72646899     0.73569085    -0.36393413    -1.21422886
O       5.08556297     2.09942099     6.66316799     0.01723103     0.27440546     1.35612835
O       2.65264802     1.79268398     2.43654601    -0.24784312     0.97525553    -1.00571643
O       2.83556100     3.52713999     7.12702397    -1.49376495    -0.84787275     0.83431917
O       0.15925499     0.60362799     2.03000902    -0.37033849    -0.04846377    -0.63244559
O       5.15416398     4.82236100     7.09181300    -0.34625136    -0.12808161     0.41074854
O       2.50887199     0.61679302     6.59007602     0.72863291    -0.41300725     1.87131565
O       2.91271102     4.81493300     2.37443398    -0.70495535    -1.81068156    -0.34508177
