# total energy = -19074.54802031 eV

CRYSTAL
PRIMVEC
        7.60600008     0.00000000     0.00000000
        0.00000000     7.60600008     0.00000000
       -1.89786986    -1.89786986     4.85670466
PRIMCOORD
22 1
Ti      3.55854000     6.85290301     1.22388199     1.71153053     0.01172963    -0.09345424
Ti      4.09013500     2.87048199     1.09297301    -0.00686073    -0.71560641     2.70719857
Ti     -0.11254198     6.59551300     1.41155401    -0.56293553     1.59928821    -1.15343973
Ti      0.03348501     2.90696098     1.25379601    -0.10716542    -0.41359989    -1.09321367
Ti      5.81985520     2.83627221     3.64900179    -1.07027994     0.62522799    -1.75991948
Ti      5.76917124    -0.98485580     3.88400983    -0.95458334    -0.24209285    -0.61435659
Ti      1.98142822     2.77579223     3.87535180     2.75138839     1.08363477     0.33843881
Ti      1.61491524    -0.74839178     3.71451383     1.24031425    -0.75446248     0.36063849
O       3.63178998     4.72737898     0.87119901    -0.07369196     0.13975185     0.22902804
O       3.30687197     1.14161102     0.95705198    -0.00177355     1.43255545     0.23126053
O       0.09516898     4.85869299     1.22275299    -0.04543835    -2.68953303    -1.09855026
O       0.42052102     0.92994800     0.90033699    -0.88416928     1.37339152     0.04888312
O       5.42363924     4.71166220     4.23954683     0.56805640     0.50716263    -0.45843789
O       5.66810621     1.03762123     3.94126379     0.10482314    -0.09533705     1.48063587
O       2.05398424     5.18757025     4.26951080     0.35639411    -2.55106184    -0.66796025
O       2.37904725     0.91504520     3.99423682    -0.28344032     0.04085819     0.27942040
O       3.64324423     2.91700423     3.15030679     0.85005921     0.73487221    -0.68650074
O       0.41549923     2.92332023     3.09864083    -1.87229036     0.04156293     0.26879094
O       5.36946900     6.71227998     1.93229501    -0.28499198    -0.08661844    -0.16483220
O       5.88968998     2.62199199     1.42202199    -1.13984322     0.35682014     1.03115519
O       1.82402699     6.62839300     1.78429901     0.44679773    -0.20867518     0.05759813
O      -0.12815377    -0.66151178     3.28393082    -0.74190006    -0.18986833     0.75761748
