# total energy = -19518.10650188 eV

CRYSTAL
PRIMVEC
        5.17600016     0.00000000     0.00000000
        0.00000000     5.50899976     0.00000000
        0.00000000     0.00000000     9.26300011
PRIMCOORD
23 1
Ti      1.83282297     3.25368500     3.42202798    -1.10311345     0.20351703     1.49746400
Ti      3.42109197     2.24110502     5.77386102    -0.56887221     0.21966279    -0.98517613
Ti      4.33100601     1.97958700     1.52012102     2.24900442     0.75905550    -0.78614028
Ti      1.01642302     3.33087900     7.85073699    -1.09741563     0.11421693     0.59232737
Ti      1.85408098     0.41322298     1.23721800     1.03043914     0.08893809    -0.54214456
Ti      3.29083600     5.25673499     7.89838702    -0.36053050    -0.44356483     0.52586895
Ti      0.67303398     0.53230098     5.82059398    -0.03395452    -0.25738706    -1.85713884
Ti      4.36145201     4.87380698     3.42635099     1.02098210     0.15541604     1.23498564
O       1.65264701     1.98539202     4.79310200    -0.10224381     0.00537746     0.05111972
O       3.47370299     3.71543301     4.55326099     0.04564764    -0.71406298     0.15812805
O       0.54150798     2.47797302     0.17749198    -0.04984651    -0.55717369    -0.51188343
O       3.48164297     0.93678000     0.19922698    -0.41776945    -0.45000184    -1.22658019
O       1.60718698     4.75382398     9.09178798     0.70936223     0.25648769    -0.58080008
O       4.14997998     0.82418399     4.77220701     0.99790644    -0.58560470    -0.79842630
O       0.98701299     4.69243598     4.43030300    -0.72696786     0.86628674     0.61968083
O       0.03918399     3.26041900     2.67206401     0.20786811     0.46485820    -0.51863335
O       5.09694701     1.99718098     6.78250900    -0.58141483     1.02572990     0.73968120
O       2.71651501     1.88903298     2.42281401    -0.20413718     0.17912471    -0.77476957
O       2.75360001     3.56644500     7.03204401    -0.83899010    -0.70824662     1.57607757
O       0.26253600     0.66677699     2.16703598    -1.08671161    -0.94432669     0.42444044
O       5.04278201     4.77456799     7.14152401     0.10135010    -0.07987726     0.46317566
O       2.37656001     0.73008400     6.71507801     0.52055911     0.47702492     0.90838831
O       2.76590503     4.68694502     2.30190400     0.28884863    -0.07545059    -0.20964423
