# total energy = -19516.17405125 eV

CRYSTAL
PRIMVEC
        7.60600008     0.00000000     0.00000000
        0.00000000     7.60600008     0.00000000
       -1.89786986    -1.89786986     4.85670466
PRIMCOORD
23 1
Ti      3.82526798     6.64016302     1.27088500     0.40314630    -0.64094849    -1.27070187
Ti      3.77429800     2.68936398     1.27218000    -0.79745571     1.38516537     1.79291549
Ti      0.02664201     6.77149899     1.07512302    -0.68695454    -0.29208308     0.01192350
Ti     -0.17651998     2.91433702     1.24887000     2.18932806     0.69130048    -2.02720221
Ti      5.64025720     2.85720022     3.63216279     0.89767889     0.42337909     2.83160607
Ti      5.74548024    -0.85433476     3.46358882     1.25770674     0.50030318     1.47879367
Ti      1.97252122     2.72586621     3.79092681     1.66288447     1.27118833    -0.66384803
Ti      2.01027225    -1.01871177     3.66622979    -1.45601446    -0.78456625    -0.40927967
O       4.10934499     4.58362200     0.94510702    -0.81333819     0.91185930    -0.27878430
O       3.49319401     0.89438401     0.74632402     0.51371200    -0.07173612    -0.19011258
O       7.05875900     4.83489801     0.67512201     1.33505944     0.83856921     2.21592202
O       0.05798603     1.15427502     0.57350399     0.75445965    -2.73233471     0.65717164
O       5.74938022     4.69916420     3.82708279     0.67069153     2.57613782     1.14999239
O       5.44201222     1.07851822     4.10678684     1.34962114    -1.95323591     0.33090598
O       2.12107820     4.64116622     4.10198783    -0.54347202     0.85091359     0.52956672
O       1.97674220     0.88764721     4.12999581    -0.21432441    -0.57281551    -0.56614967
O       3.95606821     2.80128121     3.21945179    -5.44938498     0.21254392    -1.50400386
O       3.87862222    -0.85714877     3.25668279    -1.81055763    -0.68890318    -0.63989742
O       0.03201723    -0.95645279     3.11421182     0.99874514     0.18241598    -0.61489369
O       5.70825801    -0.36488100     1.60144001     0.25405183    -1.30329602    -0.27519916
O       5.82232201     2.36131801     1.92944899     0.15333088     0.00660697    -3.49822755
O       1.96262402     6.54577399     1.45844499    -0.72762246    -0.21628231     0.86534134
O       1.73861498     3.01711102     1.78922300     0.05870833    -0.59418165     0.07416093
