# total energy = -78964.88888520 eV

CRYSTAL
PRIMVEC
       10.35150501     0.00002646     0.00000000
        0.00002858    11.01713167     0.00000000
        0.00000000     0.00000000     9.26345890
PRIMCOORD
94 1
Ti      7.19150072     8.68769680     3.27639387    -0.02944917     0.00676483    -0.00538903
Ti      7.10137974     3.32587341     3.48774532    -0.01928431     0.02862564    -0.01947817
Ti      1.79747128     8.77071710     3.46953644     0.00343602    -0.02056241     0.02349192
Ti      1.84045646     3.39916591     3.48960174     0.00833192     0.02359271    -0.02165230
Ti      8.37267677     7.68779181     5.74211216    -0.00844505    -0.01208342     0.00668487
Ti      8.54365834     2.19309698     5.83704283    -0.03245736     0.01074542     0.02433679
Ti      3.33113260     7.64123323     5.79218229    -0.00068803     0.00323136    -0.00575130
Ti      3.16975041     2.26208055     5.84258784    -0.01470749    -0.00452514     0.00997228
Ti      9.74228334     7.68763141     1.11015666     0.00863840    -0.01213793     0.00683168
Ti      9.57217789     2.19330691     1.20558487     0.03195111     0.01120050     0.02432496
Ti      4.43273155     7.64080335     1.16061525     0.00016815     0.00296397    -0.00607578
Ti      4.59354847     2.26211230     1.21065698     0.01483656    -0.00444750     0.00958045
Ti      5.96629640     8.77047074     8.10131427    -0.00311721    -0.02060560     0.02339602
Ti      5.92302763     3.39924097     8.12126581    -0.00737213     0.02353794    -0.02175745
Ti      0.57218360     8.68780776     7.90806122     0.02962478     0.00659334    -0.00539880
Ti      0.66199847     3.32621120     8.11973016     0.01889453     0.02842690    -0.01948794
Ti      7.04173014     6.04133002     1.18429880     0.02689426     0.02597509    -0.00110326
Ti      7.01947361     0.53501065     1.19283189     0.01770977     0.00883071     0.00110300
Ti      1.89800872     6.05093194     1.22219584     0.01881020    -0.00956014     0.01515100
Ti      1.91432278     0.85988885     1.34626994    -0.00225177    -0.01323142    -0.03225502
Ti      8.47508347    10.49415897     8.07021393    -0.01111951    -0.00481928    -0.00440559
Ti      8.49543331     4.96327627     8.04776389     0.02301678     0.00776216    -0.01023634
Ti      3.48667957    10.40371608     7.92691273     0.01184816    -0.00934005    -0.00188590
Ti      3.28941300     4.94049157     8.08500996    -0.00549162     0.00980799     0.01431077
Ti      5.86551285     6.05074010     5.85377978    -0.01945040    -0.00967275     0.01477254
Ti      5.84903637     0.86019449     5.97802563     0.00208311    -0.01340702    -0.03266485
Ti      0.72207072     6.04149584     5.81603206    -0.02657956     0.02542925    -0.00106444
Ti      0.74442601     0.53488883     5.82472991    -0.01743209     0.00916753     0.00101173
Ti      9.64024917    10.49379006     3.43850988     0.01162293    -0.00416185    -0.00444184
Ti      9.61923004     4.96348690     3.41636377    -0.02247222     0.00759633    -0.01025716
Ti      4.27806806    10.40391580     3.29480641    -0.01276373    -0.00959665    -0.00177252
Ti      4.47392613     4.94026030     3.45337288     0.00559395     0.01042146     0.01429174
O       6.76960731     7.47132702     4.71633543    -0.01642884     0.01978130     0.00590377
O       6.84637966     1.92090246     4.71822192     0.01410122    -0.00556181     0.02508703
O       1.59849378     7.43815710     4.75691622    -0.01441592    -0.02548144    -0.02317593
O       1.67752421     1.87786054     4.67927314    -0.00776293    -0.00940124     0.00970283
O       8.62147950     9.12785500     4.54855735    -0.01234053    -0.01244620    -0.01353172
O       8.73193857     3.58336337     4.53830329     0.00080064    -0.00242507     0.01189264
O       3.48572779     9.09755526     4.54774977     0.02266557     0.00819874    -0.02545907
O       3.57344617     3.54234746     4.51114051     0.04530003     0.01985844    -0.01522145
O       6.16527764     7.43799786     0.12519271     0.01443469    -0.02535571    -0.02324741
O       6.08588697     1.87786507     0.04763268     0.00786861    -0.00952877     0.00920558
O       0.99393391     7.47125321     0.08446414     0.01624835     0.01974608     0.00630640
O       0.91712904     1.92074486     0.08644677    -0.01394464    -0.00526845     0.02524979
O       9.49369020     9.12784406     9.18018488     0.01244492    -0.01235853    -0.01342373
O       9.38310186     3.58326567     9.17002868    -0.00084769    -0.00200160     0.01190524
O       4.27837355     9.09766447     9.17949074    -0.02299827     0.00854532    -0.02577609
O       4.19003337     3.54246911     9.14298791    -0.04544632     0.01988261    -0.01533278
O       8.72526393     6.33468352     0.07753900    -0.01683173    -0.01436322    -0.00430968
O       8.68965741     0.83811369     0.10285028     0.01442261     0.00039698    -0.01368084
O       3.57698149     6.34331444     0.08713698    -0.01296094     0.02188112     0.01790491
O       3.25109206     0.58968663     0.06334234    -0.06306841     0.00055896    -0.00141848
O       6.86649623    10.15280216     9.19142841    -0.00884408     0.00527616    -0.00627607
O       6.79814474     4.67316846     9.19941467     0.00775059     0.01323013     0.02673743
O       1.64583585     4.69783006     9.16203929    -0.00626629    -0.02445557     0.00518669
O       9.38973023     6.33482214     4.70931174     0.01728450    -0.01448097    -0.00445032
O       9.42554454     0.83810735     4.73451284    -0.01463524     0.00019875    -0.01342708
O       4.18664856     6.34318184     4.71896596     0.01266294     0.02225085     0.01792625
O       4.51266559     0.58966118     4.69506699     0.06358469     0.00014141    -0.00125753
O       6.11770086     4.69777283     4.53030164     0.00601098    -0.02440878     0.00504116
O       0.89735018    10.15275184     4.55971131     0.00857360     0.00514118    -0.00647121
O       0.96532738     4.67327904     4.56762343    -0.00761535     0.01324453     0.02679450
O       5.41818356     8.99167486     2.68836441     0.00111997    -0.03316776    -0.04568518
O       5.39578996     3.38476015     2.44681611     0.00373247     0.00172135     0.01149618
O       0.15448470     8.85605412     2.49885055     0.00203143     0.00170130     0.01568708
O       0.20045419     3.35445233     2.50166043     0.01810417    -0.00126858    -0.01507104
O      10.10423011     7.59967276     6.75189586     0.01251716    -0.00754876     0.01647846
O      10.19411964     2.14411448     6.77863742     0.00907805     0.01294988     0.02043925
O       4.96320778     7.66413037     6.78152430    -0.00447244    -0.00842757    -0.01737475
O       4.93366010     2.20026333     6.77370758     0.02414421    -0.01260921     0.00553867
O       8.01097793     7.59960935     2.12022224    -0.01258761    -0.00803521     0.01641779
O       7.92112199     2.14417427     2.14684287    -0.00915776     0.01295605     0.02078841
O       2.80049733     7.66413783     2.14971523     0.00435288    -0.00876027    -0.01757041
O       2.82964300     2.20012756     2.14190456    -0.02412004    -0.01281670     0.00518746
O       7.60930768     8.85609159     7.13064916    -0.00194324     0.00179463     0.01568656
O       7.56299679     3.35442097     7.13342477    -0.01820599    -0.00137580    -0.01518854
O       2.34569932     8.99195585     7.32029605    -0.00151644    -0.03344852    -0.04549852
O       2.36768758     3.38488591     7.07852689    -0.00408754     0.00170670     0.01144116
O       5.39362177     6.17016651     2.16939849    -0.00161285     0.00019463    -0.00779327
O       5.30518725     0.58052376     2.06949990    -0.02970525    -0.00752588     0.00132566
O       0.23452263     6.10336873     2.13136254     0.01391970     0.01300053    -0.00901095
O       0.15498772     0.59164980     2.12650727    -0.02671017     0.00369108     0.00163882
O      10.24744429    10.42308237     7.20648976    -0.00787426     0.00539315     0.02851277
O      10.13833879     4.90545988     7.12558337    -0.03261086    -0.00025300     0.00148224
O       5.10995206    10.40328616     7.07757538    -0.00129275    -0.02800729     0.00386257
O       4.97004081     4.89114663     7.11388528    -0.00234845     0.01392947    -0.00302002
O       7.52897966     6.10339630     6.76313340    -0.01380991     0.01317511    -0.00874895
O       7.60865087     0.59184156     6.75817444     0.02715137     0.00391759     0.00180260
O       2.36996945     6.17025819     6.80112951     0.00140099     0.00000489    -0.00771126
O       2.45857708     0.58046221     6.70110289     0.02988317    -0.00731196     0.00153983
O       7.86779253    10.42299562     2.57473542     0.00796579     0.00538518     0.02868452
O       7.97660133     4.90545066     2.49390918     0.03235580    -0.00063429     0.00135754
O       2.65428277    10.40332496     2.44606009     0.00202320    -0.02770262     0.00395770
O       2.79348909     4.89113242     2.48210299     0.00214764     0.01405545    -0.00322005
