# total energy = -4985.52962505 eV

CRYSTAL
PRIMVEC
        3.60585805     0.00000000     0.00000000
        1.54444165     3.25836037     0.00000000
       -2.57518399    -1.62920178     4.72904630
PRIMCOORD
6 1
Ti      1.15824015     2.44389569     1.18226153     0.00065563    -0.00065563     0.00000000
Ti      1.41687581    -0.81473690     3.54678448    -0.00065563     0.00065563     0.00000000
O       0.38614787     0.81458581     0.77032294     0.00046511     0.00055793    -2.25038125
O       2.18896796     0.81457285     3.95872311    -0.00046511    -0.00055793     2.25038125
O      -0.38611537    -0.81456530     3.13484594     0.00055793     0.00046511    -2.25038125
O       2.96123114     2.44372392     1.59420011    -0.00055793    -0.00046511     2.25038125
