# total energy = -19958.93293234 eV

CRYSTAL
PRIMVEC
        7.60600008     0.00000000     0.00000000
        0.00000000     7.60600008     0.00000000
       -1.89786986    -1.89786986     4.85670466
PRIMCOORD
24 1
Ti      3.61801100     6.74218199     1.33660098    -0.25650235     0.21032814     0.08087742
Ti      3.86178899     2.95497101     1.37010801    -1.62454082    -0.42193001    -1.98668624
Ti     -0.00803302     6.59334200     1.12490500     1.18156041     0.22163355     0.19420064
Ti      0.02828701     2.76918402     1.09664502     1.10279952    -0.57348246    -0.30282336
Ti      5.73041022     2.75749725     3.57259981     0.20554023    -0.22608670     1.19534513
Ti      5.80299921    -1.08544076     3.57393482    -0.08800195     0.25636531    -0.48549850
Ti      1.72129321     3.07222124     3.54703780     1.12193650    -1.07138320     2.55343086
Ti      1.80420422    -0.83646778     3.74707384     1.40785922     0.50952213     0.27541153
O       3.46967600     4.76814600     0.79324802     1.04692686    -0.67868175     0.24685916
O       3.54511202     1.03962099     0.97970299     1.09491266     0.85956664    -0.43807783
O       0.30596499     4.62193602     0.68080098    -1.22315727     0.56128694    -0.12307644
O       0.24658702     0.89003200     0.68975402    -0.90909639    -0.36908071    -0.14692240
O      -1.35346279     4.69184621     3.99965284    -2.52429305    -1.07456443     0.10374122
O       5.73691725     0.78849622     3.99104482    -0.07355055     1.57384148    -0.46668342
O       1.82727122     4.91984524     4.36191282     0.53945775    -1.99592781    -3.44714048
O       1.95857121     0.95774822     4.03965679    -0.27129082     0.83277265     0.89841011
O       3.68492922     2.89806022     3.33792679     2.73237713     0.69490542    -0.22979757
O       3.79023422    -0.98339178     3.16359083     1.16435201    -0.79750610     2.02317175
O      -0.03166279     2.67377521     3.01755082     0.49746262     0.10269453     1.67204017
O       0.13087823    -1.17290280     3.13081783    -2.73425121     0.68252864    -0.06986590
O       5.80485900     6.79305698     1.57331800    -0.19231782    -0.70280720     0.21160753
O       5.79857899     2.67517102     1.63967799    -2.04876169     0.67316828    -0.73416053
O       1.80528401     6.74521798     1.70666802     0.99646431    -0.16517467    -0.22455098
O       1.94755400     2.74436301     1.73661299    -1.14588557     0.89801133    -0.79981238
