# total energy = -19961.88304619 eV

CRYSTAL
PRIMVEC
        7.60600008     0.00000000     0.00000000
        0.00000000     7.60600008     0.00000000
       -1.89786986    -1.89786986     4.85670466
PRIMCOORD
24 1
Ti      3.81061802     6.59418598     1.20228500    -0.44644600     0.38680050     0.71381024
Ti      3.78688501     2.84755999     1.21904102     0.41155484    -0.02025207    -0.05450715
Ti     -0.00848800     6.67363300     1.22799899     0.54724691     0.33219822    -0.71748794
Ti     -0.02524699     2.89206602     1.20385200    -0.14454233    -0.69467119     0.20124546
Ti      5.70072724     2.86291925     3.66215280     0.39391192     0.14735666    -0.12924195
Ti      5.73134221    -0.94463378     3.62798980    -0.35576753    -0.25212838     0.44339488
Ti      1.91466225     2.85326124     3.64101280    -0.33451761    -0.29751814    -0.44769787
Ti      1.89532622    -0.97906777     3.69296779     0.19665450     0.28105485    -1.43169079
O       3.71962399     4.77316699     0.73480701     0.37024028    -0.30192553     0.80047547
O       3.75822202     0.92216899     0.69667698     0.11747169    -0.08305463     1.54421182
O       0.01717498     4.77300798     0.79436199    -0.01671115    -0.66328855    -0.27346520
O      -0.02212702     0.97025501     0.83309602     0.27207732    -0.19067025    -0.79959847
O       5.72068521     4.71113223     3.95481681     0.10563870     0.88722555     0.81075243
O       5.72201922     0.90276824     3.98698883    -0.20122541     0.50006664     0.82245841
O       1.87467021     4.71818124     4.04578683    -0.02122601     0.23033185    -0.06769846
O       1.85236824     0.93742723     4.13946782     0.35504017     0.31665435    -0.87600037
O       3.83381324     2.93498324     3.21917582    -0.53313207    -0.61148955     0.10139149
O       3.82821825    -0.98584679     3.24422580    -0.76151270     0.03053880    -0.70391534
O      -0.06995279     2.73978722     3.23405782     1.78294578     0.37863519    -0.56398891
O      -0.01255780    -0.96952077     3.16402079     0.40886263    -0.05506585     0.69735723
O       5.73872100     6.65224699     1.58726700    -1.51965726    -0.05490696     0.11872022
O       5.75641098     2.88456202     1.59145301    -1.05801757     0.02983586    -0.15092870
O       1.84038502     6.67236298     1.61077200     1.61700697    -0.01135348     0.21412849
O       1.97702198     2.91567198     1.68066901    -1.18589683    -0.28437440    -0.25172498
