# total energy = -19961.26949329 eV

CRYSTAL
PRIMVEC
        7.60600008     0.00000000     0.00000000
        0.00000000     7.60600008     0.00000000
       -1.89786986    -1.89786986     4.85670466
PRIMCOORD
24 1
Ti      3.80012597     6.71739300     1.29928202    -0.61399175    -1.23836150    -1.67180312
Ti      3.77833599     2.84910301     1.23294399     0.34370520     1.21612376    -0.77035062
Ti     -0.04128900     6.58206502     1.18708999     0.56526187    -0.49675068    -0.12348782
Ti      0.05156203     2.75739601     1.22023802    -0.11108301     0.74233201     0.33757157
Ti      5.69702120     2.74973723     3.59921780     0.52071852     1.24151599     0.39568752
Ti      5.71020322    -0.96591877     3.64938079     0.31250639    -1.41113558    -0.41695235
Ti      1.91048122     2.87904725     3.57073679    -0.26043331     1.33952622     2.27493555
Ti      1.87131120    -0.85479478     3.65214680    -0.42039866    -1.60223752    -0.25755264
O       3.79241502     4.82008602     0.70394899     0.38988146    -0.95220584     0.58665500
O       3.72249599     0.95777600     0.84839501     0.49934801     1.20663356     0.23315389
O       0.01422698     4.56750601     0.68922601    -0.25993451     1.35417920     0.38986937
O      -0.00194499     0.84016900     0.80774801    -0.09069467     0.97512903    -0.07114451
O       5.67011222     4.69710422     4.02990580     0.15327020    -0.25278427     0.74058880
O       5.89514622     0.85534422     3.95859181    -0.56472502     0.58472590     0.36125890
O       1.84305721     4.81730525     4.15368983     0.46314558     0.29797066    -0.48518534
O       1.67255323     0.98575720     4.08101680     0.88964548     0.16886523    -0.25738603
O       3.81929722     3.02860523     3.14360682     0.20227493    -0.92603046     0.69801826
O       3.76556721    -0.90616879     3.27704882     0.65364229     0.31061715     0.18839637
O       0.11551622     3.05994221     3.17494481    -1.48889734    -0.83923821    -0.39311976
O      -0.00100676    -0.98930078     3.23397580    -0.44251504    -0.27463994    -0.50057469
O       5.70244902     6.51647699     1.63768802     0.24977582     0.33532134     0.26299490
O       5.77469098     2.81388299     1.71683298    -0.25502602    -0.42904760    -1.43103336
O       1.89220201     6.71717900     1.66083598    -0.49753384    -0.40398448     0.15449045
O       1.94191900     3.02768102     1.59843301    -0.23794257    -0.94652421    -0.24503008
