# total energy = -19516.70499811 eV

CRYSTAL
PRIMVEC
        5.93400000     0.00000000     0.00000000
        0.00000000     9.29699974     0.00000000
        0.00000000     0.00000000     4.64899994
PRIMCOORD
23 1
Ti      4.40355600     6.89529101     2.31057002     1.54672558     1.01022280     0.14987017
Ti      4.47285700     2.40623198     2.34884599     1.52377925    -1.68137996     0.25112668
Ti      1.40399001     7.03652699     2.18147199    -1.30103448     0.66969215    -0.06123084
Ti      1.57910598     2.30041500     2.30625098    -1.00020012    -0.49572250     0.76834490
Ti      2.91151598     4.70634201     0.26573498     1.00162734    -0.56990194     0.07560743
Ti      2.90301501     9.27894602     4.61454902     1.78263853     0.26986026    -0.17238559
Ti      5.90797898     4.52520401     4.58168902     0.30283827    -0.62794616    -0.66139134
Ti      0.00256000     0.09069701     4.54674300    -1.66585049     0.53629401     0.46587918
O       4.55894901     5.58131702     0.97764200    -1.44329135    -0.97160379    -0.72300682
O       4.55439898     1.03207101     0.88343200    -0.23622662    -0.56735629    -0.04428984
O       1.29451302     5.43650999     0.87477402     1.71656989     1.68336254     0.69787453
O       1.49371799     0.86257998     0.95600601     0.62815956    -0.18554090    -0.21380608
O       4.54058603     8.39709901     3.82044897    -1.05141523    -0.55570225    -1.03708544
O       4.40181300     3.72796900     3.90349001    -0.77986679     0.23757671    -0.70749869
O       1.57534400     8.53485999     3.52799102    -0.11119280    -0.94675381     0.33880493
O       1.44495198     3.44485198     3.81434798     0.53422967     2.43789213     1.48029622
O       3.10831298     1.39522202     3.21339599    -0.75110179    -0.10414900     0.25885156
O       0.02610902     6.19349900     3.20841802     0.35043866    -1.58162909     1.01813538
O       0.04758701     1.45831799     3.25919400     0.01074336    -0.79020828    -0.05657817
O       3.01199901     7.72508100     1.22293598    -0.81576428     0.09440914     0.85594730
O       3.08781101     3.26722602     1.47891098    -1.50819013     0.64329565    -0.27667420
O       5.81794201     7.78782301     1.37741700     1.01739978     0.85959158    -0.49338382
O       0.04709402     3.31231001     1.68413703     0.24898392     0.63569701    -1.91340668
