# total energy = -19961.11922774 eV

CRYSTAL
PRIMVEC
        7.60600008     0.00000000     0.00000000
        0.00000000     7.60600008     0.00000000
       -1.89786986    -1.89786986     4.85670466
PRIMCOORD
24 1
Ti      3.69505497     6.70542200     1.28715799     0.98637273    -0.15945371    -0.08674957
Ti      3.76496500     2.97692001     1.25937999     0.49990851    -0.20647869    -1.43042066
Ti      0.09022800     6.53732700     1.17638198    -1.18638149     1.78048060     0.11843354
Ti      0.02848498     2.87665098     1.09016202    -0.10969461    -1.73569480     2.27451569
Ti      5.68334324     2.81680622     3.57680280     0.57287156    -0.04777214    -0.99213637
Ti      5.72473024    -1.05504275     3.58403179     0.20704150     0.13446052     0.56021119
Ti      1.86783620     3.00831223     3.63896181    -0.37697066    -1.94650168     0.38539231
Ti      1.84600425    -0.95595479     3.67345682    -0.17709508     1.50214547     1.22438652
O       3.75148802     4.82398098     0.87445202     0.27807159     0.83137654    -0.20536668
O       3.69526098     1.02259101     0.77769598     0.20679416    -0.95436017     0.69428579
O       0.10602198     4.67247499     0.70297700    -0.10183861     0.98340953     0.20842450
O       0.21217801     0.84389902     0.78371003    -0.51236731    -0.32982946    -0.18463201
O       5.85110523     4.68961022     4.00250082    -0.42529096    -0.27482198     0.32547556
O       5.69755424     0.88836620     4.12808982    -0.17838526    -0.20450511    -2.31326094
O       1.76164525     4.84332325     4.12864281     0.20302569    -0.82260625     0.21063102
O       1.87010822     1.10786723     4.15766982     0.17362846    -1.11172922    -0.46764527
O       3.82510023     2.93161424     3.29325582     0.41513690     0.01299487     0.14392372
O       3.72362922    -1.03023079     3.24589684     1.08490386     0.54830415    -0.08905045
O       0.08335023     2.75711322     3.09229579    -1.58037825     0.34058105     0.84232122
O      -0.02044979    -1.01503377     3.25352482     0.44144109     0.52162895    -0.50887344
O       5.77535298     6.56446400     1.64086102    -0.93404562     0.24409034    -0.13271217
O       5.68539200     2.92796498     1.56715700     0.81865369    -0.44223839     0.65154401
O       1.87561098     6.33833598     1.71452498     0.16126531     0.91897715    -0.37961350
O       1.95603698     2.85536101     1.72572200    -0.46666774     0.41754268    -0.84908348
