# total energy = -19074.65746128 eV

CRYSTAL
PRIMVEC
        7.60600008     0.00000000     0.00000000
        0.00000000     7.60600008     0.00000000
       -1.89786986    -1.89786986     4.85670466
PRIMCOORD
22 1
Ti      3.69338902     6.64820302     1.17364402     1.92158459     0.04608601    -0.77827424
Ti      3.81359798     2.92843002     1.20381802    -0.28356862    -0.30817588    -0.31275065
Ti     -0.30548799     6.59039099     1.36569297     1.47034837     0.25872969    -0.32785151
Ti      0.06032203     2.92952700     1.26534700    -0.39455701     0.56909436    -0.22304148
Ti      5.64714122     3.01062622     3.51206283     0.57037142     0.14240754    -0.02633968
Ti      5.72693623    -1.14319775     3.81332683    -0.95053539     0.45496999    -0.02934247
Ti      2.00559024     2.95973524     3.63791981    -0.63551292    -0.09082348     0.46344229
Ti      1.80045225    -0.79190979     3.65432579    -1.23419811     0.33336190     1.65479886
O       4.01755602     4.77714101     0.85441700    -1.16917617     1.35982946    -0.73323570
O       3.66073799     0.97980301     0.66216902     0.77797085     0.68625443     2.07639746
O       0.15668600     4.79352402     0.55847700    -0.41199090    -0.07808572     0.71049994
O       0.05459098     0.91111199     0.84908802    -0.17519735     0.30884360     0.63561885
O       5.12174325     4.74594723     3.76149482    -0.11998469     0.61487724     1.50504567
O      -0.15426776    -0.77185376     3.37052882     1.45660633    -0.16261282    -1.12680386
O       1.65507324     4.80372725     4.12952082     0.96220692    -0.34417288    -0.69588681
O       1.66353425     1.09244225     4.10201980     0.34345940    -0.36148798    -0.66588306
O       3.86521324     2.49167220     3.28304683    -1.02995834     0.12622090    -0.89198955
O      -0.00437979     3.15989321     3.09632081    -1.11063136    -1.12988096     1.00199321
O       5.56555500     6.58903502     1.85961702    -1.09158539     0.56348292    -1.24899790
O       5.62941600     3.20474002     1.49982200     1.36363957    -1.80215089     0.51162992
O       2.09702900     6.47448598     1.89403899    -1.67256365    -0.26705981    -0.91118850
O       1.89288099     3.21604399     1.72308098     1.41327294    -0.91970785    -0.58784079
