# total energy = -19961.20251801 eV

CRYSTAL
PRIMVEC
        7.60600008     0.00000000     0.00000000
        0.00000000     7.60600008     0.00000000
       -1.89786986    -1.89786986     4.85670466
PRIMCOORD
24 1
Ti      3.78425600     6.65408303     1.27794999     1.22177531     0.50692814     0.50371786
Ti      3.77286901     2.89294498     1.13699998     1.81011746    -0.12000731     1.95114612
Ti      0.06055899     6.58127702     1.23403299    -1.33501907    -0.77210205    -1.08755441
Ti      0.09798003     2.81455398     1.15924997    -1.49292292     0.78940533    -0.67933739
Ti      5.73823522     2.81955222     3.56957281    -1.83143397     0.06507516     0.00960307
Ti      5.69791022    -1.06166879     3.65848581    -1.70106665    -0.10852039    -0.28838327
Ti      1.84205521     2.93727723     3.67918982     1.60364237     0.97065685    -0.53521672
Ti      1.77718321    -0.89715377     3.69371282     1.55303482    -1.02749162    -0.10850471
O       3.76789802     4.81676400     0.78240597    -0.27533800    -0.10552326    -0.51889509
O       3.80664200     0.95669500     0.81192502    -0.32356343     0.44138041    -0.33800815
O       0.04886899     4.71967400     0.77864199     0.63287162    -0.27780883    -0.19341773
O       0.02117201     0.84050699     0.81202699     0.36559969     1.01199635    -0.00755210
O       5.55221423     4.66762624     4.03407783     0.52874448     1.30978291     0.63860236
O       5.58753221     0.94877623     4.06010980     1.02001202    -0.80005587     0.13209073
O       2.07999024     4.86281724     4.05147781    -0.85176848    -0.89891379     0.20805092
O       1.90103323     1.05638321     4.06459284    -0.61346133    -0.87288573    -0.54597884
O       3.85905224     2.89465623     3.25749783    -1.64985180    -0.21709426    -0.78104255
O       3.78104924    -0.87566680     3.23279282     0.17329113     0.13015777    -0.36748431
O      -0.03837276     3.11478323     3.10794181     1.86526070    -0.74969128     0.70665948
O      -0.09705878    -1.09378376     3.20407681     2.41330697     0.58802617     1.00909075
O       5.78702298     6.51489200     1.65525702    -1.63046387     0.34479843     0.04481409
O       5.68916202     2.97781199     1.58701300     0.09637681    -0.82323694    -0.15579091
O       1.93318001     6.50573400     1.68927602    -0.67742911     0.66842511    -0.01256447
O       1.95936502     2.82138000     1.59228699    -0.90171475    -0.05330130     0.41595579
