# total energy = -4988.77993135 eV

CRYSTAL
PRIMVEC
        3.06464859     0.00000000     0.00000000
        1.18199275     4.65409577     0.00000000
       -0.00000760    -0.00006293     4.84039546
PRIMCOORD
6 1
Ti      2.12331675     2.32701633     2.42019778     0.00000000     0.00000000     0.00000000
Ti      0.00000000     0.00000000     0.00000000     0.00000000     0.00000000     0.00000000
O       1.76267570     0.90700240     0.94332181    -0.70373279     0.32336828     0.19113871
O       2.48395775     3.74703027     3.89707376     0.70373279    -0.32336828    -0.19113871
O       0.36063782     1.41998846     3.36352056     0.70349188    -0.32330657     0.19081089
O       0.82134721     3.23404429     1.47687500    -0.70349188     0.32330657    -0.19081089
