# total energy = -19073.96836628 eV

CRYSTAL
PRIMVEC
        5.17600016     0.00000000     0.00000000
        0.00000000     5.50899976     0.00000000
        0.00000000     0.00000000     9.26300011
PRIMCOORD
22 1
Ti      1.82402900     3.33722802     3.26888800     0.45502346     1.17540030     0.18407409
Ti      3.54489400     2.23055799     5.84086401     1.13265672     1.36576331    -0.04828199
Ti      4.37347201     2.27510397     1.21044602     0.02584628    -0.07646515    -1.40853157
Ti      0.70731302     3.24321100     8.16423398     0.46552514     0.23495289    -0.40764213
Ti      1.81490397     0.54600599     1.36620802     0.00398341    -0.25235335    -1.57155268
Ti      3.10051603     5.00969102     8.03068203     1.76640381     0.30664967     0.59160437
Ti      0.73139900     0.21139202     5.98435799    -0.49318971     0.97583660    -1.51607597
Ti      4.43686998     4.93092198     3.39592198     0.40854742     0.63368949     0.08449677
O       3.48544300     3.63341202     4.38048001     0.21490548    -1.57756032     2.39952148
O       0.87009303     2.09834401     0.28491999     0.81587741    -1.57760095     0.24254356
O       4.32513400     3.67068102     9.09478000    -1.28623906     0.95276762     0.00302799
O       3.34009002     0.86446602     0.13104403     0.93735385     1.04941363    -0.42314692
O       1.73797600     4.71703801     9.14782600    -2.38638520     0.01441592     0.50723796
O       4.73795099     1.02724798     4.76497798    -1.77032165    -0.36348882    -0.53102864
O       1.17829797     4.80356003     4.26830502    -1.64204001    -0.09044656     2.02364226
O       0.13548901     3.55323801     2.39591800    -0.34654910    -0.71994592     0.12965178
O       5.11041901     2.02456897     6.93269400    -0.03689817    -0.72280113    -0.38400108
O       2.69406900     2.06207902     2.19757300     0.19699440    -0.87812513     0.73601789
O       2.51036602     3.35035801     7.32620899    -0.21245136    -0.45883795    -2.14632686
O       0.00265202     0.71153797     2.08123402     0.53694733    -0.16692251     0.38376403
O       2.41324099     0.79213903     6.35223000     0.66897892    -0.96359120     1.21020482
O       2.74667002     4.65663603     2.26677700     0.54503011     1.13924929    -0.05919864
