# total energy = -19922.91671119 eV

CRYSTAL
PRIMVEC
        7.53718989     0.00000000     0.00000000
        0.00002844     4.81310940     0.00000000
        0.00000000     0.00000000    11.51139184
PRIMCOORD
24 1
Ti      2.73188546     2.85224415     4.27064429     0.51361456    -0.26177671     1.77639460
Ti      4.80533239     1.96086518     7.24074768    -0.51361456     0.26177671    -1.77639460
Ti      6.50035072     1.96086680     1.48500570     0.51408455     0.26136122    -1.77604699
Ti      1.03686718     2.85224272    10.02638633    -0.51408455    -0.26136122     1.77604699
Ti      2.73187148     0.44568951     1.48505188     0.51338213    -0.25964089    -1.77641774
Ti      4.80534636     4.36741995    10.02634021    -0.51338213     0.25964089     1.77641774
Ti      1.03685314     0.44568777     7.24070150    -0.51443114    -0.25945474    -1.77621308
Ti      6.50036470     4.36742169     4.27069040     0.51443114     0.25945474     1.77621308
O       2.38557807     1.69477759     5.87417517     0.95476460     1.19923418    -1.52194425
O       5.15163984     3.11833168     5.63721680    -0.95476460    -1.19923418     1.52194425
O       1.38308071     1.69479703     0.11851624    -0.95378115     1.20013278    -1.52397568
O       6.15413725     3.11831231    11.39287536     0.95378115    -1.20013278     1.52397568
O       5.15162586     0.71177692     0.11847888    -0.95544080    -1.20043797    -1.52339667
O       2.38559204     4.10133235    11.39291272     0.95544080     1.20043797     1.52339667
O       6.15412321     0.71175755     5.87421247     0.95438716    -1.20022534    -1.52407416
O       1.38309457     4.10135179     5.63717944    -0.95438716     1.20022534     1.52407416
O       0.27386074     2.92760598     3.10951412    -2.04695549     0.70280385     0.48913045
O       7.26335716     1.88550329     8.40187778     2.04695549    -0.70280385    -0.48913045
O       4.04246436     1.88545855     2.64621842    -2.04654231    -0.70302034    -0.49044248
O       3.49475348     2.92765079     8.86517330     2.04654231     0.70302034     0.49044248
O       0.27384670     0.52105122     2.64618168    -2.04726942     0.70271721    -0.49066874
O       7.26337114     4.29205805     8.86521004     2.04726942    -0.70271721     0.49066874
O       3.49473951     0.52109603     8.40191446     2.04702722     0.70277943    -0.48827144
O       4.04247833     4.29201325     3.10947738    -2.04702722    -0.70277943     0.48827144
