# total energy = -39038.85439193 eV

CRYSTAL
PRIMVEC
        5.93188753     0.00000000     0.00000000
        0.00000000     9.29428401     0.00000000
        0.00000000    -0.00005292     9.29428401
PRIMCOORD
46 1
Ti      4.44891576     6.97067316     6.97071285    -0.00000000     0.00000000     0.00000000
Ti      4.44891576     6.97069962     2.32357084    -0.00000000    -0.00000000    -0.00000000
Ti      4.44891576     2.32353116     6.97071285     0.00000000     0.00000000     0.00000000
Ti      4.44891576     2.32355761     2.32357084     0.00000000     0.00000000     0.00000000
Ti      1.48297199     6.97067316     6.97071285    -0.00000000     0.00000000     0.00000000
Ti      1.48297199     6.97069962     2.32357084    -0.00000000     0.00000000     0.00000000
Ti      1.48297199     2.32353116     6.97071285     0.00000000     0.00000000     0.00000000
Ti      1.48297199     2.32355761     2.32357084     0.00000000     0.00000000     0.00000000
Ti      2.96594376     4.64882618     4.64317427    -0.00000000     0.00749425     0.01914161
Ti      2.96594376     4.76203981    -0.11489716     0.00000000     0.00473032    -0.00473032
Ti      2.96594376     0.04062408     4.60649170     0.00000000    -0.02355029     0.02355029
Ti      2.96594376     0.00396774    -0.00171061     0.00000000    -0.01914161    -0.00749425
Ti      0.00000000     4.64314781     4.64885262     0.00000000     0.01914161     0.00749425
Ti      0.00000000     4.60649146     0.04065031     0.00000000     0.02355029    -0.02355029
Ti      0.00000000    -0.11492427     4.76203916     0.00000000    -0.00473032     0.00473032
Ti      0.00000000    -0.00171064     0.00396773    -0.00000000    -0.00749425    -0.01914161
O       4.44891576     5.55744947     5.55748112    -0.00000000    -0.00669901    -0.00669901
O       4.41575821     5.48034423     0.96414777    -0.00088163    -0.01163039    -0.00049417
O       4.48207330     0.96411657     5.48034972     0.00088163    -0.00049417    -0.01163039
O       4.44891576     0.93868878     0.93869412     0.00000000    -0.01047699    -0.01047699
O       1.48297199     5.55744947     5.55748112     0.00000000    -0.00669901    -0.00669901
O       1.51612954     5.48034423     0.96414777     0.00088163    -0.01163039    -0.00049417
O       1.44981445     0.96411657     5.48034972    -0.00088163    -0.00049417    -0.01163039
O       1.48297199     0.93868878     0.93869412     0.00000000    -0.01047699    -0.01047699
O       4.44891576     8.38389690     8.38394463     0.00000000     0.00669901     0.00669901
O       4.48207330     8.46105506     3.68299397     0.00088163     0.01163039     0.00049417
O       4.41575821     3.68294579     8.46107603    -0.00088163     0.00049417     0.01163039
O       4.44891576     3.70842651     3.70844762     0.00000000     0.01047699     0.01047699
O       1.48297199     8.38389690     8.38394463    -0.00000000     0.00669901     0.00669901
O       1.44981445     8.46105506     3.68299397    -0.00088163     0.01163039     0.00049417
O       1.51612954     3.68294579     8.46107603     0.00088163     0.00049417     0.01163039
O       1.48297199     3.70842651     3.70844762     0.00000000     0.01047699     0.01047699
O       2.96594376     6.06098064     7.88040020     0.00000000     0.01573490    -0.01573490
O       2.96594376     6.09472240     3.26631373    -0.00000000    -0.00608349    -0.01573413
O       2.96594376     1.38078329     7.84668471     0.00000000     0.01573413     0.00608349
O       2.96594376     1.45699928     3.19012425     0.00000000    -0.00242198     0.00242198
O       0.00000000     6.03442544     7.90695524    -0.00000000    -0.02642452     0.02642452
O       0.00000000     6.07456326     3.24879995    -0.00000000     0.01517826     0.00679003
O       0.00000000     1.39829696     7.86684394     0.00000000    -0.00679003    -0.01517826
O       2.96594376     7.90692088     6.03447046    -0.00000000     0.02642452    -0.02642452
O       2.96594376     7.86683597     1.39834175    -0.00000000    -0.01517826    -0.00679003
O       2.96594376     3.24876536     6.07458176     0.00000000     0.00679003     0.01517826
O       0.00000000     7.88036569     6.06102551     0.00000000    -0.01573490     0.01573490
O       0.00000000     7.84667685     1.38082796    -0.00000000     0.00608349     0.01573413
O       0.00000000     3.26627903     6.09474099     0.00000000    -0.01573413    -0.00608349
O       0.00000000     3.19011595     1.45701745     0.00000000     0.00242198    -0.00242198
