# total energy = -4980.68589232 eV

CRYSTAL
PRIMVEC
        2.93579572     0.00000000     0.00000000
        2.16468345     4.05878079     0.00000000
       -0.00001392    -0.00006271     4.76011565
PRIMCOORD
6 1
Ti      2.55023239     2.02935894     2.38005793     0.00000000     0.00000000     0.00000000
Ti      0.00000000     0.00000000     0.00000000     0.00000000     0.00000000     0.00000000
O       1.88975995     0.79098434     0.92767648    -7.38344689     3.20208418     4.34871691
O       3.21070485     3.26773365     3.83243942     7.38344689    -3.20208418    -4.34871691
O       0.66046653     1.23834940     3.30773534     7.38396702    -3.20331573     4.35060204
O       1.50420267     2.82036866     1.45238052    -7.38396702     3.20331573    -4.35060204
