# total energy = -19072.91785251 eV

CRYSTAL
PRIMVEC
        5.17600016     0.00000000     0.00000000
        0.00000000     5.50899976     0.00000000
        0.00000000     0.00000000     9.26300011
PRIMCOORD
22 1
Ti      1.80106599     3.35062102     3.23153200    -0.07164279     0.98851291     0.56879688
Ti      3.78342398     2.42527702     5.95896002    -0.23862880    -1.22373963    -0.22943736
Ti      4.25252500     2.27733202     1.21507003     0.83167119    -0.40618071    -1.15411284
Ti      0.92655502     3.14170602     8.24305102    -0.59505505     1.34967102    -0.65752388
Ti      1.75444902     0.54806999     1.34266397    -0.84206308    -0.74571378    -2.63527013
Ti      3.19088098     5.00202901     7.84602001     0.46448281     0.22154124     1.93436452
Ti      0.75174402     0.14935202     6.06508700    -0.05295523     2.18579691    -0.90025154
Ti      4.37530402     5.05663799     3.42073102    -0.29212602     0.63311793     0.76474612
O       3.44076599     3.46349997     4.40770099    -0.89835869    -0.06062304     0.64711014
O       0.92277998     2.05844399     0.40244702    -0.32058943     0.19839231    -0.20769225
O       4.43470702     3.72357699     8.82861200    -0.91501353    -0.35146196     1.26280139
O       3.24204300     0.66800801     0.23175402     1.82588347     1.72968792    -1.18163523
O       1.51877702     5.00310102     8.74647400    -1.34060402    -1.90321483    -0.73715123
O       4.30708799     0.85544900     4.79341099     0.27252572     0.18703780     0.21488568
O       0.86614002     4.85012101     4.36865501     1.10017237    -1.57237003     0.73492106
O       5.12749397     3.58385398     2.37174301     0.95043383    -1.45400669     0.18859383
O       0.30612999     2.04878000     6.74639800    -1.10399765    -0.66202383    -0.33813284
O       2.62137201     1.87173899     2.29059400     0.25002445     1.77502806     1.39431619
O       2.65367801     3.10141198     7.34820202    -0.23224603     1.44186336    -1.10931495
O       4.99441002     0.60654598     1.94307002     0.73412916     0.31945403     1.19818028
O       2.54492802     0.80914303     6.51575398    -0.04830462    -1.63359651     0.12919207
O       2.57838101     4.82225501     2.44611702     0.52226169    -1.01717224     0.11261385
