# total energy = -19961.52643921 eV

CRYSTAL
PRIMVEC
        5.07223745     0.00000000     0.00000000
        0.00002780     5.39839452     0.00000000
        0.00000000     0.00000000     9.07818972
PRIMCOORD
24 1
Ti      1.83845859     3.19908360     3.36794370    -0.00890553     0.18579801    -0.17559356
Ti      3.23380666     2.19931097     5.71024628     0.00890553    -0.18579801     0.17559356
Ti      4.37448852     2.19931283     1.17111501    -0.00766420    -0.18526939     0.17521123
Ti      0.69777673     3.19908195     7.90707508     0.00766420     0.18526939    -0.17521123
Ti      1.83844480     0.49988644     1.17115142    -0.00898421     0.16392794     0.17544957
Ti      3.23382046     4.89850828     7.90703867     0.00898421    -0.16392794    -0.17544957
Ti      0.69776294     0.49988443     5.71020987     0.00838077     0.16409121     0.17584038
Ti      4.37450232     4.89851029     3.36798011    -0.00838077    -0.16409121    -0.17584038
O       1.60540497     1.90086653     4.63253082    -0.34802260    -0.31769797    -0.03312996
O       3.46686029     3.49752809     4.44565916     0.34802260     0.31769797     0.03312996
O       0.93076299     1.90088827     0.09346505     0.34756520    -0.31774167    -0.03287337
O       4.14150231     3.49750635     8.98472467    -0.34756520     0.31774167     0.03287337
O       3.46684649     0.79833078     0.09343560     0.34826454     0.31754858    -0.03268799
O       1.60541876     4.60006379     8.98475413    -0.34826454    -0.31754858     0.03268799
O       4.14148852     0.79830904     4.63256028    -0.34837689     0.31812605    -0.03254709
O       0.93077669     4.60008559     4.44562970     0.34837689    -0.31812605     0.03254709
O       0.18430301     3.28360958     2.45224558    -0.12913936     0.08144049    -0.08120524
O       4.88796225     2.11478499     6.62594440     0.12913936    -0.08144049     0.08120524
O       2.72042580     2.11473468     2.08687827    -0.12942347    -0.08136619     0.08103760
O       2.35183945     3.28365989     6.99131156     0.12942347     0.08136619    -0.08103760
O       0.18428921     0.58441227     2.08684928    -0.12945149     0.08127054     0.08089208
O       4.88797604     4.81398231     6.99134055     0.12945149    -0.08127054    -0.08089208
O       2.35182566     0.58446258     6.62597334     0.12949777     0.08162330     0.08123969
O       2.72043960     4.81393199     2.45221659    -0.12949777    -0.08162330    -0.08123969
