# total energy = -4990.26889431 eV

CRYSTAL
PRIMVEC
        3.90309643     0.00000000     0.00000000
        0.38932725     3.88363052     0.00000000
       -2.14624646    -1.94184658     4.98747337
PRIMCOORD
6 1
Ti      0.29184588     2.91287063     1.24686810     0.00040701    -0.00040701     0.00000000
Ti      1.85433100    -0.97108700     3.74060467    -0.00040701     0.00040701     0.00000000
O       0.09737296     0.97090149     0.81241857    -0.00046717    -0.00069060    -0.44233815
O       2.04880381     0.97088204     4.17505431     0.00046717     0.00069060     0.44233815
O      -0.09735136    -0.97088194     3.30615515    -0.00069060    -0.00046717    -0.44233815
O       2.24352806     2.91266542     1.68131773     0.00069060     0.00046717     0.44233815
