# total energy = -19516.14648474 eV

CRYSTAL
PRIMVEC
        5.17600016     0.00000000     0.00000000
        0.00000000     5.50899976     0.00000000
        0.00000000     0.00000000     9.26300011
PRIMCOORD
23 1
Ti      1.81309599     3.21395898     3.42028101    -0.63940788     1.09420740     1.35832510
Ti      3.28509099     2.28791001     5.82755499     1.34440360     1.64503124    -2.29166958
Ti      4.31800402     1.97594298     1.50081198     1.67291923     0.59281588    -1.76200696
Ti      0.89037798     3.14829697     7.71851100     0.32710846     1.52085899     3.51560744
Ti      2.01563800     0.23170301     1.35714099     0.68298373     0.22437151    -2.65083688
Ti      3.34741902     5.30690099     7.77359200     0.59275905    -1.50995134     3.79102231
Ti      0.67607098     0.62322999     6.02128499    -0.78519129    -1.96737544    -2.89544067
Ti      4.45359701     5.02560597     3.29617598     0.93329074    -0.99106473     2.31503320
O       1.66244298     2.00206100     5.01555700    -1.35192408     0.52518812    -1.82877339
O       3.60843300     3.65030198     4.49293901    -1.31354932    -1.08451434     0.29248135
O       0.24711900     2.79440101     0.16650202     0.52459060    -0.43063731    -2.05587208
O       3.56066602     0.88094201     0.11637301     0.02993074     0.64337510     0.20953059
O       1.89642802     4.81536401     9.06550401     0.03667911    -0.89643448    -1.42816889
O       4.17277302     0.81951500     5.03281501     0.47275508    -0.73622538    -1.68366825
O       0.87572702     4.73979898     4.41414097     0.55297713     0.78595387     0.42639885
O       0.07911401     3.44558298     2.50203799     0.90093314    -1.47239599     0.48858614
O       4.88920599     1.94286999     6.96996798    -0.13436307    -0.07308878     0.62326855
O       2.56459902     1.87499300     2.26279198    -0.06913545     0.45731689     0.60621261
O       2.76250099     3.62484501     7.05622599    -1.34667543    -0.06066186     0.91964435
O       0.25959298     0.44197799     1.75987700    -1.36413940     0.64209649     1.62659231
O       5.14106599     4.70433802     7.24036300     0.02630882     0.50286991    -0.44447962
O       2.32615900     0.95622599     6.98888702    -1.42526586     1.08740246    -0.12758256
O       2.84639802     4.46703198     2.26992598     0.33201285    -0.49913873     0.99579608
