# total energy = -19074.20793691 eV

CRYSTAL
PRIMVEC
        5.17600016     0.00000000     0.00000000
        0.00000000     5.50899976     0.00000000
        0.00000000     0.00000000     9.26300011
PRIMCOORD
22 1
Ti      1.93005501     3.48799601     3.31249898     0.57423271     0.62306337    -0.97166755
Ti      3.48088302     2.17164702     5.93561500    -0.68173340     0.54043683    -0.39524581
Ti      4.49525998     2.25952399     1.24673102    -0.90453937     0.56070279    -0.22189400
Ti      0.62364899     3.14254201     8.14772201     1.28552789     1.58499853    -0.75100614
Ti      1.86710800     0.62155800     1.37331000     0.61019834    -0.73418804    -1.61039589
Ti      3.17624002     5.00216998     8.09263000    -0.87465877     0.09497119     0.79339851
Ti      0.59791902     0.16735903     5.92171198     0.25151286     0.83315729     0.15273824
Ti      4.52684800     4.98075799     3.41450599     0.12867193    -0.76122962    -0.51741285
O       3.54615402     3.38154502     4.24887601     0.94989056    -0.56299441     2.36016713
O       0.85972401     1.92626599     0.18683899     0.75900613    -0.45648077    -1.12713065
O       4.18733201     3.64442499     9.04562600     0.43763612    -0.23832721    -0.28405661
O       3.40927597     0.78077801     0.24481698     1.06346291     0.72761527    -1.65283094
O       1.70911001     4.69587103     9.17674702    -1.53686129    -0.33710440    -0.26665024
O       4.31182498     0.79387700     4.71949397    -0.51900565     0.19791151     0.64476761
O       1.19955100     5.00947300     4.21601802    -1.02781841    -0.76447410     1.59278692
O       0.45960002     3.55992300     2.17059898    -2.10910987    -0.34449941     0.87792304
O       5.00689400     1.82362598     6.89789499     0.30547391    -0.09240574     0.18761552
O       2.74899199     2.19039000     2.05603698    -0.40304500    -0.44091659     0.94040756
O       2.20738199     3.64212502     7.02912899    -0.11889480    -0.96861154    -1.01919107
O       0.07634303     0.73715201     2.05876700    -0.09762405    -0.67476879     1.61641922
O       2.24291502     0.82998398     6.64017900     1.04660752     0.19067077    -0.01496717
O       2.83043301     4.80195403     2.38605699     0.86107022     1.02247308    -0.33377482
