# total energy = -4977.63071500 eV

CRYSTAL
PRIMVEC
        4.13870392     0.00000000     0.00000000
        0.00000000     2.16157631     0.00000000
        0.00000000    -0.00011352     5.76420267
PRIMCOORD
6 1
Ti      2.06935177     1.08073110     2.88210133     0.00000000     0.00000000     0.00000000
Ti      0.00000000     0.00000000     0.00000000     0.00000000     0.00000000     0.00000000
O       2.06935177     0.42123716     1.12335822     0.00000000    -0.96045034    -0.62597463
O       2.06935177     1.74022509     4.64084450     0.00000000     0.96045034     0.62597463
O       0.00000000     0.65944916     4.00546072    -0.00000000     0.96051616    -0.62732858
O       0.00000000     1.50201309     1.75874195    -0.00000000    -0.96051616     0.62732858
