# total energy = -39035.26192152 eV

CRYSTAL
PRIMVEC
        7.60600008     0.00000000     0.00000000
        0.00000000     7.60600008     0.00000000
       -3.79573973    -3.79573973     9.71340985
PRIMCOORD
46 1
Ti      1.73811046     4.71061846     6.06832461     0.23411780     0.41419690     0.08068305
Ti      3.94835498     6.59632799     1.24690602    -1.58874565     1.55551182    -0.30258759
Ti      1.76310244     0.77945047     5.97428262     1.10321244    -0.64002109     2.90776115
Ti      3.92356398     2.78295999     1.30921399    -0.33115975    -0.99534794    -2.87470497
Ti     -2.06216157     4.76819543     6.08280163     0.24662596     1.11578334    -0.50250559
Ti      0.12144099     6.81476802     1.10896200     0.40273132    -1.12514781     1.60753400
Ti     -1.99610056     0.98942043     6.14499260    -0.40378522    -1.18308250    -0.46676595
Ti      0.06156099     2.91960900     1.24926800     0.34381550     0.40195485    -1.21269468
Ti      3.70476442     1.04908945     8.50751761     0.26256861    -1.01485002     0.77518352
Ti      5.83864401     2.83154502     3.72096900    -0.05301462     0.51227553    -0.39737211
Ti      3.58386245    -2.81299857     8.45847960     0.94250583     2.45027636    -0.71982148
Ti      5.79360198    -0.92011599     3.54816098     0.03633870    -0.99044073     2.50389905
Ti      0.09630544     1.01647647     8.38505764    -0.22398379    -0.64006326     1.12169405
Ti      2.03839601     2.77512001     3.50058498    -0.54799279     0.67892910     1.27407979
Ti     -0.15332953    -2.78241853     8.42951562    -0.54278810     0.35177255     2.07398833
Ti      1.93576398    -1.12771101     3.65139700    -0.02929105    -0.04733608    -0.54890682
O       1.67088743    -1.08971958     5.64693563    -0.58272712     0.95378141    -0.36900512
O       3.83020801     0.99933499     0.91427298    -0.18663388    -0.74331006    -0.83665836
O      -1.80184356     2.89930844     5.63320560    -1.20070691    -0.52129187    -0.10481517
O       0.24331898     4.88740297     0.73227500    -1.21639810    -1.38871272    -0.68704556
O      -1.68320657    -0.95051453     5.59076262    -0.11473398     0.34256980     1.59845569
O       0.24141601     1.01067298     0.90174201    -0.29618168     0.18885582    -0.10729475
O       3.45372745     3.06280744     8.87759963    -0.34283102    -3.22572599     0.52052774
O       5.77326501     4.83090902     4.04946202    -0.17911674    -2.01327171     0.05547851
O       3.83298444    -1.02074254     9.00611763     0.00380061     1.39184459     0.36335923
O       5.62333798     0.89535298     4.15755399     0.28439677     1.46267516    -0.74457633
O       0.12483646     2.89629647     8.91844063    -0.08960966    -0.94029494     1.04643603
O       2.03075500     4.68955498     4.07947600    -0.44897648    -2.47440232     0.12724574
O      -0.23079156    -0.87831157     8.87877361    -0.02984872     0.55475248     0.37535163
O       1.89195398     0.91724499     4.23961303     0.48344959     0.89977203    -3.16405549
O       1.93528645     0.50014547     8.14722162    -1.78270589     1.51096564    -0.09633361
O       3.89688000     2.82625901     3.14881102     0.28005443     0.04207535     2.15351310
O       1.68867446    -2.64306457     8.06733162     1.32912070    -0.33995807    -0.06490881
O       3.82339803    -1.18607302     3.40128201     0.46950315     0.72208482    -1.66459400
O      -2.07609957     1.15625843     8.04372063     1.87446654    -0.00798534     0.09456187
O       0.06431499     2.76085599     3.27396398    -0.00149793     0.13199380    -0.14915438
O      -2.15834054    -3.07500656     8.05256864     1.32056432     0.54243741    -0.31321576
O       0.11326399     6.31126999     3.03904098    -0.98920531     1.24755294     0.88178098
O       3.67185547     4.94110547     6.40297360    -0.54994503    -0.88253509     0.53675964
O       5.75845201    -0.64127901     1.74134601    -0.21542253    -0.54529184    -1.87176842
O       3.72544144     0.69535446     6.56253965     0.02922677     1.10745142    -1.36131761
O       5.76879298     2.82681698     1.61311900     1.31097102     0.73188021     0.12519272
O      -0.13088855     4.59749645     6.60563865     0.12302116    -0.01512375    -1.46790093
O       1.93703501     6.51416703     1.61887301     2.30399339     0.68575718    -0.24852447
O       0.08787046     1.41869944     6.48211264    -0.25297350    -0.81037062     0.22197576
O       2.02916700     2.91894801     1.62860601    -1.18420942     0.54741352    -0.16893388
