# total energy = -19518.18230630 eV

CRYSTAL
PRIMVEC
        7.60600008     0.00000000     0.00000000
        0.00000000     7.60600008     0.00000000
       -1.89786986    -1.89786986     4.85670466
PRIMCOORD
23 1
Ti      3.74432799     6.61811199     1.11841098     0.92751630     0.13768597     1.46741962
Ti      3.78291501     2.78317801     1.18394800     0.76979037     0.08411573     0.22195622
Ti      0.02064903     6.71150500     1.17452399    -1.11851385    -0.05641105    -0.55347850
Ti      0.02226402     2.89543201     1.13980298    -0.85505975    -0.16567758     0.27821738
Ti      5.70313621     2.89691921     3.70130281    -0.83582404     0.74748142     0.52683877
Ti      5.64887523    -0.87214078     3.55377179    -1.08900426    -0.59671984     0.02213284
Ti      2.09113021     2.84212825     3.74151880     0.54931691    -0.80650137    -0.15419014
Ti      1.82157722    -1.02375377     3.57786481     1.29696493     0.60924266     0.21070224
O       4.02670501     4.67577197     0.80504301    -1.02327990    -0.05193990     0.52802688
O       3.63196397     0.93097598     0.71422302    -0.28054423     0.07327955     0.77404298
O       7.24931700     4.81311300     0.85600802     1.61070597    -0.56595221    -0.03464563
O       0.06803600     0.97967002     0.80735298     0.19895101     0.50926116    -0.00720629
O       5.76011924     4.83007424     4.06704679     0.46540353    -0.88807453    -0.38667478
O       5.40643023     0.98711825     4.09174079     1.39516722    -0.40783651    -0.09680670
O       2.01085524     4.73851223     4.06422680    -0.97929962    -0.46098791    -0.18134280
O       2.19048520     0.85939222     4.06305780    -1.26283224     0.47920598     0.33771144
O       3.87713121     2.89628520     3.49715882    -0.75864669     0.27548558    -1.82075103
O       3.77997623    -1.10206078     3.24069582    -0.19944235     0.25123904    -0.65070660
O      -0.02784377    -0.97240177     3.12606380     0.06197621     0.53381032     0.75654893
O       5.59806902     6.79263100     1.58627199     0.53122328     0.27875499     0.36954942
O       5.77738200     2.72657499     1.85143700     0.16042224    -0.09166295    -0.74589350
O       1.86624401     6.45320999     1.56114999     0.33878873     0.14864401     0.08285177
O       1.84232298     2.94083901     1.82794401     0.09622023    -0.03644283    -0.94430252
