# total energy = -19073.31809174 eV

CRYSTAL
PRIMVEC
        5.93400000     0.00000000     0.00000000
        0.00000000     9.29699974     0.00000000
        0.00000000     0.00000000     4.64899994
PRIMCOORD
22 1
Ti      4.36008599     7.14756399     2.29202601    -0.04532497    -0.97579983     0.86800603
Ti      4.42596502     2.37582599     2.20890602     0.55274599    -0.24993523    -0.37165773
Ti      1.38439198     7.06880702     2.53980600     0.35898913    -0.65347619     1.33447451
Ti      1.67429602     2.41898700     2.19593699    -1.07511876     0.79634551    -0.25170004
Ti      3.06542702     4.61685999     4.48047202    -1.55084398     0.18238770    -1.03617733
Ti      2.98183099     9.22493898     0.02948300    -0.00441793     0.65541609    -0.00825839
Ti      5.80676801     4.60032199     4.63533997     2.00718976    -0.68607137    -1.38531424
Ti      5.93101899     9.24879101     0.19219099     0.05160823     0.09523215     0.51408378
O       4.49123501     5.41753502     0.87780197    -0.76799240     1.42060136     1.45764171
O       4.37025699     0.65026602     1.06343201     1.03860419     1.51762531     0.07948928
O       1.52348500     0.75759698     1.06010602    -0.52580210     1.06811970    -0.76960140
O       4.49131698     8.16448402     4.00998598    -0.08604457     1.03093022    -1.06297877
O       4.48987799     3.85401903     3.51195901    -0.02883288    -1.42315652    -0.64808407
O       1.51459800     8.17450600     4.03382599    -1.06925124     0.42174824    -0.66787669
O       1.56090101     4.01224202     3.41538300    -0.02045622    -1.11659169     0.38748236
O       3.04041202     6.21997702     3.23925101    -0.90648415    -1.72396722     0.55322267
O       3.02706601     1.53626199     3.20374099    -0.27506289    -0.95408711     1.04983580
O       5.78905100     6.06248498     3.26760501     1.11747564     0.18251574    -0.40423439
O       2.79778002     8.04879899     1.64107898     0.58917005    -0.89563589    -0.60704154
O       3.07101699     2.98298301     1.02705102    -0.19478145     0.99647819     0.40382635
O       0.00099401     8.00411500     1.59067898     0.45771567    -0.86059123     0.37587408
O       5.92858700     2.87048802     1.15385200     0.37691461     1.17191208     0.18898824
