# total energy = -4986.18613332 eV

CRYSTAL
PRIMVEC
        3.13888759     0.00000000     0.00000000
        0.00000000     3.63516665     0.00000000
        0.00000000    -0.00005735     4.37510629
PRIMCOORD
6 1
Ti      1.56944384     1.81755450     2.18755314     0.00000000     0.00000000     0.00000000
Ti      0.00000000     0.00000000     0.00000000     0.00000000     0.00000000     0.00000000
O       1.56944384     0.70842920     0.85264376     0.00000000    -0.99818438    -1.25410617
O       1.56944384     2.92667975     3.52246248     0.00000000     0.99818438     1.25410617
O       0.00000000     1.10910212     3.04019788     0.00000000     0.99806996    -1.25433705
O       0.00000000     2.52600689     1.33490841     0.00000000    -0.99806996     1.25433705
