# total energy = -19075.61937066 eV

CRYSTAL
PRIMVEC
        7.60600008     0.00000000     0.00000000
        0.00000000     7.60600008     0.00000000
       -1.89786986    -1.89786986     4.85670466
PRIMCOORD
22 1
Ti      3.88160900     6.57032501     1.17875899     0.30098399     1.05764348    -0.99596114
Ti      3.74446198     2.83616198     1.15853701    -0.39836764    -0.17052334     0.18554681
Ti      0.20389401     6.68281597     1.05213598    -0.43841002     0.84310721     1.81578263
Ti     -0.10437799     2.88639001     1.20368700     0.11928612    -0.59248677     0.14967374
Ti      5.65855822     2.80380221     3.63353780    -0.54331312     0.76713622    -0.38500047
Ti      6.09181320    -0.85110080     3.61369879     0.03598543    -0.73148041     1.43543534
Ti      1.79252322     2.83065822     3.64987879     0.71089975    -0.76122860    -0.82970918
Ti      1.49328925    -1.17938977     3.77712280     0.14631485     2.31144445    -1.36938265
O       3.78642102     4.77931302     0.86807802     0.02593858    -0.44121921    -0.88716822
O       4.06814499     0.96580198     0.61783301    -0.61957413     0.12406580     1.91717155
O      -0.14428399     4.83881201     0.73025900     0.08208430     0.03912835     0.01349238
O      -0.27028601     0.98281900     0.92481202     1.10962786    -0.03329066    -0.62314899
O      -1.50874779     4.86427121     4.13820679    -0.13832874     0.15376180    -2.49811998
O       5.72603223     0.99113825     4.03954180     0.31228811    -0.52180147    -0.22770264
O       2.19382621     4.75732523     4.01162881    -0.84748991    -1.15169986     0.69670108
O       1.56250722     0.98724123     4.04362080     0.31534669    -0.46953066     0.20048210
O       3.70741724     2.70515320     3.26263583     0.45262257     0.09188895    -0.72751859
O      -0.04509776     2.92054321     3.16287480    -0.42693647     0.11607918     0.48903583
O       5.65038698     6.67930599     1.83854502     0.65481420    -0.31818468     0.30187076
O       5.62329803     3.04767201     1.62176200    -0.45843249    -0.27832691     0.38229927
O       2.13850899     6.57404301     1.91197498    -1.43439019     0.63471073     0.26413004
O       1.77634902     3.02621398     1.54529002     1.03905028    -0.66919412     0.69209006
