# total energy = -19924.77527213 eV

CRYSTAL
PRIMVEC
        7.33662923     0.00000000     0.00000000
        0.00002456     3.75959618     0.00000000
        0.00000000     0.00000000    11.08448093
PRIMCOORD
24 1
Ti      2.65918990     2.22793329     4.11226337    -0.07121187     0.36718786     1.47756854
Ti      4.67746406     1.53166306     6.97221768     0.07121187    -0.36718786    -1.47756854
Ti      6.32737893     1.53166440     1.42993287    -0.07149392    -0.36681891    -1.47762690
Ti      1.00927508     2.22793212     9.65454834     0.07149392     0.36681891     1.47762690
Ti      2.65917768     0.34813525     1.42997732    -0.07121187     0.36718786    -1.47756854
Ti      4.67747634     3.41146121     9.65450389     0.07121187    -0.36718786     1.47756854
Ti      1.00926280     0.34813381     6.97217322     0.07149392     0.36681891    -1.47762690
Ti      6.32739115     3.41146266     4.11230782    -0.07149392    -0.36681891     1.47762690
O       2.32209821     1.32381778     5.65632578     2.81092128     0.11900998    -0.13926771
O       5.01455580     2.43577857     5.42815526    -2.81092128    -0.11900998     0.13926771
O       1.34627679     1.32383291     0.11412093    -2.81058909     0.11838135    -0.13817653
O       5.99037728     2.43576344    10.97035978     2.81058909    -0.11838135     0.13817653
O       5.01454352     0.55598048     0.11408498    -2.81092128    -0.11900998    -0.13926771
O       2.32211043     3.20361587    10.97039578     2.81092128     0.11900998     0.13926771
O       5.99036505     0.55596535     5.65636173     2.81058909    -0.11838135    -0.13817653
O       1.34628885     3.20363106     5.42811931    -2.81058909     0.11838135     0.13817653
O       0.26657175     2.28679955     2.99419483    -0.82824134     0.26567733     0.59171827
O       7.07008220     1.47279685     8.09028622     0.82824134    -0.26567733    -0.59171827
O       3.93489555     1.47276176     2.54808092    -0.82881778    -0.26522842    -0.59286498
O       3.40175841     2.28683465     8.53639995     0.82881778     0.26522842     0.59286498
O       0.26655953     0.40700141     2.54804553    -0.82824134     0.26567733    -0.59171827
O       7.07009448     3.35259494     8.53643535     0.82824134    -0.26567733     0.59171827
O       3.40174618     0.40703650     8.09032156     0.82881778     0.26522842    -0.59286498
O       3.93490783     3.35255985     2.99415943    -0.82881778    -0.26522842     0.59286498
