# total energy = -19072.32940172 eV

CRYSTAL
PRIMVEC
        7.60600008     0.00000000     0.00000000
        0.00000000     7.60600008     0.00000000
       -1.89786986    -1.89786986     4.85670466
PRIMCOORD
22 1
Ti      3.93854398     6.67447000     1.48427498     0.33086639     0.38008941    -0.76367166
Ti      3.58931800     2.82405002     1.09505400     1.51490303    -0.10611538    -1.18641800
Ti      0.18773198     6.61206201     1.07752400    -0.86723856     0.22003072    -0.01329389
Ti      0.04429399     2.90388403     0.94809899    -1.76445388    -0.57410518     0.02294402
Ti      5.57851021     2.94440720     3.38632381     0.06283676     0.65827053    -1.13412637
Ti     -1.29800977    -0.80679380     3.87711179    -2.52821193    -0.93896671    -0.56028344
Ti      1.79085123     3.00380423     3.80431282     0.45496536    -1.05366032     1.75764277
Ti      1.37504825    -1.17681480     4.07610482     1.80937647     2.70631797    -0.80297124
O       3.48795802     4.82803098     0.89412302     0.05537310    -0.18651715    -0.95347108
O       4.00903700     0.96137398     1.02361401    -1.00331836    -2.01151359     1.83027183
O       0.35650899     4.81474498     0.64249902    -0.54090194    -0.59726569    -0.05844171
O       7.06110997     1.01243800     0.54494700     1.33677719    -0.57063162     0.81083188
O       5.49010321     4.74032821     3.89447283     0.79820544    -0.06091794     0.72974825
O       5.65803020     1.07692121     3.90301280    -0.92022696     0.42716169    -1.39594216
O       2.44146323     4.89249620     4.45568583    -1.24201118    -1.63805506    -1.20833100
O       2.20245122     0.75789522     4.15983183    -1.41303588     0.75946327    -0.89849882
O       3.50926724     2.75857322     3.11668281    -0.08354057     0.77650327    -0.42368479
O       0.05157224     2.94549022     2.96095680     1.40178473     0.14203293     0.16723798
O       5.92157100     6.52248601     2.05445998    -0.25572073     0.38121426    -0.98831442
O       5.53649401     3.10623400     1.34064400     0.93470690    -0.04939220     2.46382300
O       1.85185399     6.45997801     2.03693198    -0.00903177     1.00688705     1.16915586
O       1.74791601     2.04768799     0.24876802     1.92789691     0.32916946     1.43579273
