# total energy = -19960.86392348 eV

CRYSTAL
PRIMVEC
        5.93400000     0.00000000     0.00000000
        0.00000000     9.29699974     0.00000000
        0.00000000     0.00000000     4.64899994
PRIMCOORD
24 1
Ti      4.41490902     6.97948301     2.30215499     0.89562535     0.35586703    -0.12867759
Ti      4.47500303     2.30813998     2.35758202    -1.16124714    -0.25435162    -0.39147708
Ti      1.48441701     7.01233999     2.37828401    -0.86968291    -0.51889303    -0.85949388
Ti      1.45647899     2.37892702     2.35177700     1.22325678    -0.39310999    -0.50458561
Ti      2.95562401     4.67112903     4.60110099     0.42836600    -0.76824051     1.13267266
Ti      2.95122697     9.23323600     4.63983999     1.10050455     1.92998825    -0.03909184
Ti      5.93193002     4.68749098     4.60433500    -0.39706384    -0.34572531     0.55090739
Ti      0.04205298     0.01194798     0.02792902    -1.64779389     1.64734060     0.98922537
O       4.43275701     5.62951099     0.78047300     0.58699824    -0.05114877     0.28921347
O       4.44885199     0.88704601     0.84262201    -0.41189859     0.17897841     0.45172345
O       1.53784502     5.56002801     0.93059402    -0.49981004     0.34193731    -0.43828121
O       1.52510302     0.89903802     0.93281201    -0.23470093    -0.00906906    -0.42250465
O       4.50152401     8.35874202     3.71400301    -0.84395104    -0.36751954    -0.16894391
O       4.48174601     3.65449301     3.79489400     0.30245955     0.49904025     0.21664843
O       1.36986601     8.38955099     3.90450301     1.92994300    -2.33411542    -2.55774543
O       1.56256400     3.70103002     3.84282100    -1.11235631     0.09973210    -0.55238449
O       2.99069899     5.97586300     3.12102799    -0.68708978     0.77148447     0.13638885
O       2.92131301     1.43097598     3.18140098     0.58901013    -0.90432957     0.72929111
O       5.89218002     5.95665699     3.11182602     0.60091228     0.39934749     0.39814010
O       0.07372598     1.37479001     3.19882700    -0.56882259    -0.03559899     0.25379060
O       2.91641902     7.94174701     1.40277099    -0.13805081    -1.01229974     1.05742827
O       2.99745299     3.21590201     1.43841299     0.21503815     0.47909980    -0.08516911
O       5.88124601     7.86478803     1.41901398     0.83650718    -0.25745545     0.59654526
O       5.93249402     3.25464102     1.49568499    -0.13615308     0.54904206    -0.65362043
