# total energy = -19912.85330235 eV

CRYSTAL
PRIMVEC
        6.50196221     0.00000000     0.00000000
        1.37034162     6.78301632     0.00000000
        0.00000000     0.00000000    11.69628635
PRIMCOORD
24 1
Ti      3.16871165     4.01960919     4.33923896    -0.21414829    -1.69006078     0.70470133
Ti      4.70359187     2.76340729     7.35704785     0.21414829     1.69006078    -0.70470133
Ti      6.16580108     2.76340972     1.50885771     0.19918498    -0.14564816    -0.37063083
Ti      1.70650246     4.01960702    10.18742924    -0.19918498     0.14564816     0.37063083
Ti      2.48354099     0.62810128     1.50890461    -0.21414829    -1.69006078    -0.70470133
Ti      5.38876254     6.15491540    10.18738234     0.21414829     1.69006078     0.70470133
Ti      1.02133169     0.62809866     7.35700095    -0.19918498     0.14564816    -0.37063083
Ti      6.85097184     6.15491802     4.33928586     0.19918498    -0.14564816     0.37063083
O       2.54043255     2.38841539     5.96852558     1.74813585     1.89299237    -0.49685559
O       5.33187096     4.39460110     5.72776124    -1.74813585    -1.89299237     0.49685559
O       1.67563308     2.38844270     0.12041984    -0.92611582     0.41802425     0.72401469
O       6.19667050     4.39457384    11.57586665     0.92611582    -0.41802425    -0.72401469
O       4.64670029     1.00309299     0.12038187    -1.74813585    -1.89299237    -0.49685559
O       3.22560323     5.77992349    11.57590461     1.74813585     1.89299237     0.49685559
O       5.51149983     1.00306573     5.96856355     0.92611582    -0.41802425     0.72401469
O       2.36080363     5.77995082     5.72772327    -0.92611582     0.41802425    -0.72401469
O       1.06975071     4.12581495     3.15945886     0.49984424     1.21488912     1.43581921
O       6.80255280     2.65720153     8.53682796    -0.49984424    -1.21488912    -1.43581921
O       4.02403456     2.65713817     2.68872176     0.58877744     1.44461264     0.64708828
O       3.84826895     4.12587831     9.00756486    -0.58877744    -1.44461264    -0.64708828
O       0.38458004     0.73430685     2.68868439     0.49984424     1.21488912    -1.43581921
O       7.48772348     6.04870970     9.00760223    -0.49984424    -1.21488912     1.43581921
O       3.16309827     0.73437014     8.53686527    -0.58877744    -1.44461264     0.64708828
O       4.70920524     6.04864635     3.15942148     0.58877744     1.44461264    -0.64708828
