# total energy = -4986.67597260 eV

CRYSTAL
PRIMVEC
        3.54163275     0.00000000     0.00000000
        0.00000000     3.32952429     0.00000000
        0.00000000    -0.00006557     4.73532338
PRIMCOORD
6 1
Ti      1.77081623     1.66472946     2.36766179     0.00000000     0.00000000     0.00000000
Ti      0.00000000     0.00000000     0.00000000     0.00000000     0.00000000     0.00000000
O       1.77081623     0.64886251     0.92284484     0.00000000    -1.47343241    -1.09761052
O       1.77081623     2.68059642     3.81247880     0.00000000     1.47343241     1.09761052
O       0.00000000     1.01584077     3.29050755     0.00000000     1.47317787    -1.09785117
O       0.00000000     2.31361815     1.44481604     0.00000000    -1.47317787     1.09785117
