# total energy = -19959.38008673 eV

CRYSTAL
PRIMVEC
        5.93400000     0.00000000     0.00000000
        0.00000000     9.29699974     0.00000000
        0.00000000     0.00000000     4.64899994
PRIMCOORD
24 1
Ti      4.38759501     6.74602498     2.27936602     0.84385540     1.19286041     1.79653380
Ti      4.48829199     2.41496399     2.30988198    -0.30808409    -3.00729424     1.05713517
Ti      1.48785000     6.99157799     2.20185399    -0.71188396    -0.18751782     1.11420211
Ti      1.50545498     2.55523798     2.30110399    -0.31042380    -2.85510622     1.71192571
Ti      2.95630702     4.64268702     4.64053099    -0.65736087    -1.40278926    -0.10995687
Ti      2.90593797     9.13361801     4.57101102     0.91841613     1.78822862    -1.50079255
Ti      5.91447098     4.68220799     0.07404100     0.63734431    -0.87225376    -1.16339427
Ti      0.03850802     9.17528898     0.22190101    -1.61905846     2.92427740    -2.14910417
O       4.42862202     5.63591499     0.84708498     0.14451148     0.47610652    -0.01412719
O       4.53592397     1.09260698     0.97417198     0.08929470    -1.23702015    -0.87926284
O       1.44216798     5.55797099     0.88745099     0.16553025     0.81552260    -0.00421995
O       1.59489499     0.82154001     0.72841502    -0.14191081     0.84353118     1.35031611
O       4.60320299     8.42397698     3.79973602    -1.10495359    -0.55762877    -0.48582503
O       4.39386502     3.69485801     3.96106301     0.63425230     0.09702961    -0.82846220
O       1.45113002     8.40402398     3.60247600     0.68488737    -0.76395756     0.58785493
O       1.48229797     3.66461299     3.87007903    -0.43850926     0.99336073     0.35857364
O       2.90035801     5.90476301     3.20266200     0.84507179     1.72824656    -1.12077514
O       2.82832799     1.46080401     3.14378500     0.94744518     0.24863605    -0.28058691
O       0.12669001     6.00272901     3.12173799    -1.45029530    -0.05180749     0.48521337
O       0.13338997     1.52355999     3.14307997    -1.07641716     0.52028349    -0.38660638
O       3.02830000     7.84067998     1.39038100     0.18514161    -0.46533539     0.37094785
O       2.95809998     3.46228800     1.53063699     0.52769829     0.17400256    -0.23636572
O       5.90602902     7.84293602     1.40629600     0.03053803    -1.01966364     0.94841963
O       5.79994401     3.47386698     1.54545703     1.16491020     0.61828832    -0.62164258
