# total energy = -4987.66030430 eV

CRYSTAL
PRIMVEC
        4.18477005     0.00000000     0.00000000
        0.20909886     4.17954280     0.00000000
       -2.19697161    -2.08980674     5.34236814
PRIMCOORD
6 1
Ti      0.15665509     3.13481581     1.33559189    -0.00143596     0.00143596     0.00000000
Ti      2.04024168    -1.04508026     4.00677596     0.00143596    -0.00143596     0.00000000
O       0.05231874     1.04487886     0.87022809    -0.00038721    -0.00177226    -1.02583455
O       2.14457785     1.04485658     4.47213982     0.00038721     0.00177226     1.02583455
O      -0.05229810    -1.04485923     3.54141216    -0.00177226    -0.00038721    -1.02583455
O       2.24919469     3.13459461     1.80095581     0.00177226     0.00038721     1.02583455
