# total energy = -4985.54361810 eV

CRYSTAL
PRIMVEC
        4.07700113     0.00000000     0.00000000
        1.91858170     3.59735771     0.00000000
       -2.99782972    -1.79870184     5.38433017
PRIMCOORD
6 1
Ti      1.43884008     2.69815682     1.34608219     0.00034093    -0.00034093     0.00000000
Ti      1.55891288    -0.89950108     4.03824733    -0.00034093     0.00034093     0.00000000
O       0.47968767     0.89933485     0.87706327    -0.00038644    -0.00051294    -2.38707760
O       2.51806511     0.89932088     4.50726629     0.00038644     0.00051294     2.38707760
O      -0.47964893    -0.89931155     3.56922836    -0.00051294    -0.00038644    -2.38707760
O       3.47740163     2.69796718     1.81510115     0.00051294     0.00038644     2.38707760
