# total energy = -19913.49933871 eV

CRYSTAL
PRIMVEC
        8.03535582     0.00000000     0.00000000
        0.00002690     4.11765296     0.00000000
        0.00000000     0.00000000    12.14014578
PRIMCOORD
24 1
Ti      2.91244608     2.44011741     4.50390750     0.22291396    -0.21455144     2.61322111
Ti      5.12293682     1.67753573     7.63623841    -0.22291396     0.21455144    -2.61322111
Ti      6.92998645     1.67753720     1.56611695     0.22297181     0.21460055    -2.61397650
Ti      1.10539652     2.44011613    10.57402914    -0.22297181    -0.21460055     2.61397650
Ti      2.91243269     0.38129099     1.56616564     0.22291396    -0.21455144    -2.61322111
Ti      5.12295027     3.73636228    10.57398045    -0.22291396     0.21455144     2.61322111
Ti      1.10538307     0.38128941     7.63618972    -0.22297181    -0.21460055    -2.61397650
Ti      6.92999984     3.73636386     4.50395618     0.22297181     0.21460055     2.61397650
O       2.54325042     1.44989567     6.19502348     1.55492175     1.00150573    -1.83805842
O       5.49213255     2.66775748     5.94512243    -1.55492175    -1.00150573     1.83805842
O       1.47449363     1.44991224     0.12498959    -1.55467467     1.00153530    -1.83809082
O       6.56088940     2.66774091    12.01515595     1.55467467    -1.00153530     1.83809082
O       5.49211910     0.60893100     0.12495022    -1.55492175    -1.00150573    -1.83805842
O       2.54326381     3.50872215    12.01519538     1.55492175     1.00150573     1.83805842
O       6.56087601     0.60891443     6.19506285     1.55467467    -1.00153530    -1.83809082
O       1.47450683     3.50873878     5.94508305    -1.55467467     1.00153530     1.83809082
O       0.29195954     2.50458999     3.27935624    -2.00500355     0.63133179     0.25389190
O       7.74342337     1.61306322     8.86078967     2.00500355    -0.63133179    -0.25389190
O       4.30964751     1.61302478     2.79075530    -2.00570366    -0.63122560    -0.25443621
O       3.72573540     2.50462843     9.34939042     2.00570366     0.63122560     0.25443621
O       0.29194615     0.44576345     2.79071653    -2.00500355     0.63133179    -0.25389190
O       7.74343682     3.67188970     9.34942919     2.00500355    -0.63133179     0.25389190
O       3.72572201     0.44580188     8.86082837     2.00570366     0.63122560    -0.25443621
O       4.30966095     3.67185126     3.27931747    -2.00570366    -0.63122560     0.25443621
