# total energy = -19518.48810865 eV

CRYSTAL
PRIMVEC
        5.93400000     0.00000000     0.00000000
        0.00000000     9.29699974     0.00000000
        0.00000000     0.00000000     4.64899994
PRIMCOORD
23 1
Ti      4.56288402     7.09177701     2.30727901     0.00724177     0.03115587    -0.21900845
Ti      4.41079800     2.28924698     2.36759802     0.29275080    -0.30054073    -0.56005770
Ti      1.43920802     7.05124002     2.22559002     0.30724360    -0.00713893    -0.05910351
Ti      1.43271798     2.28357600     2.30197401    -0.28982463     0.22730746    -0.00717518
Ti      3.01622502     4.44866799     0.10305801    -0.92733606     0.25100147     0.46486359
Ti      2.93941002     9.25421301     4.62096599     0.36887811     0.29973109     0.38936929
Ti      0.01249298     4.69273502     0.05271500     0.43828275    -0.17205392    -0.05266855
Ti      5.93128802     0.01904303     4.62714598    -0.10363298     0.85999293     0.15845535
O       4.40652098     5.61414501     0.93094201    -0.44351906    -0.15794678    -0.20835456
O       4.44845198     0.85735102     0.90077800     0.25941515     0.52589698     0.04491847
O       1.55637401     5.57555401     0.90357598     0.08377583     0.14428651     0.07368296
O       1.53212700     0.86761600     0.92313902    -0.57396480     0.33891086    -0.20392429
O       4.51641099     8.28400198     3.86786199    -0.70762827    -0.28788627    -1.05157361
O       4.39858703     3.77719598     3.66244501     0.03724039     0.54053376     0.15615472
O       1.50366800     8.36463102     3.74265002     0.06899044    -0.19232090    -0.10711091
O       1.36471802     3.76809101     3.70260602     1.10202845     0.14381754    -0.05481234
O       2.91348399     1.36129001     3.20851697     0.25172523     0.31097196     0.20566108
O       0.08579598     6.23798598     3.23883200    -0.63540544    -1.30476540     0.27137850
O       5.89334199     1.44536701     3.17265199     0.19506710    -0.85960778     0.83254820
O       2.96469401     7.95609698     1.50960701     0.62047633    -0.65588172     0.27127848
O       2.95374999     3.11284400     1.33416899    -0.12466538     0.51730743    -0.02063928
O       0.06112198     7.95974200     1.41306201    -0.50731458     0.01541146    -0.20104106
O       5.86605401     3.30140298     1.39409900     0.28017527    -0.26818210    -0.12284093
