# total energy = -4988.69633358 eV

CRYSTAL
PRIMVEC
        3.48007102     0.00000000     0.00000000
        0.00000000     4.03029346     0.00000000
        0.00000000    -0.00006359     4.85066132
PRIMCOORD
6 1
Ti      1.74003556     2.01511478     2.42533066     0.00000000     0.00000000     0.00000000
Ti      0.00000000     0.00000000     0.00000000     0.00000000     0.00000000     0.00000000
O       1.74003556     0.78543238     0.94532243     0.00000000     0.07199554     0.11005174
O       1.74003556     3.24479712     3.90533883     0.00000000    -0.07199554    -0.11005174
O       0.00000000     1.22965670     3.37065417     0.00000000    -0.07258458     0.11014147
O       0.00000000     2.80057285     1.48000715     0.00000000     0.07258458    -0.11014147
