# total energy = -19950.34866600 eV

CRYSTAL
PRIMVEC
        4.88947558     0.00000000     0.00000000
        1.03049690     5.10082827     0.00000000
        0.00000000     0.00000000     8.79560734
PRIMCOORD
24 1
Ti      2.38287116     3.02274611     3.26310770     1.87882353    -0.89271332     0.49384251
Ti      3.53710109     2.07808228     5.53249999    -1.87882353     0.89271332    -0.49384251
Ti      4.63668241     2.07808411     1.13466100    -3.05491366    -0.42981276     1.68670446
Ti      1.28328985     3.02274448     7.66094679     3.05491366     0.42981276    -1.68670446
Ti      1.86762283     0.47233216     1.13469627     1.87945345    -0.89402227    -0.49759092
Ti      4.05234943     4.62849638     7.66091152    -1.87945345     0.89402227     0.49759092
Ti      0.76804143     0.47233019     5.53246472     3.05548265     0.43007990     1.69111339
Ti      5.15193082     4.62849835     3.26314297    -3.05548265    -0.43007990    -1.69111339
O       1.91040528     1.79608837     4.48833123    -1.16797032    -0.53087669    -0.67358557
O       4.00956696     3.30474002     4.30727645     1.16797032     0.53087669     0.67358557
O       1.26007608     1.79610891     0.09055572     1.27985115    -1.11158318    -0.11024509
O       4.65989622     3.30471953     8.70505172    -1.27985115     1.11158318     0.11024509
O       3.49431862     0.75432593     0.09052717     1.16748207     0.53057150    -0.67389462
O       2.42565363     4.34650247     8.70508027    -1.16748207    -0.53057150     0.67389462
O       4.14464787     0.75430543     4.48835979    -1.28059265     1.11213803    -0.10996407
O       1.77532433     4.34652302     4.30724790     1.28059265    -1.11213803     0.10996407
O       0.80445253     3.10261285     2.37591306    -0.66833255    -0.95922392    -1.48114443
O       5.11551971     1.99821555     6.41969463     0.66833255     0.95922392     1.48114443
O       3.02607399     1.99816791     2.02191876     0.78757881    -1.55545140    -1.46168709
O       2.89389825     3.10266049     6.77368877    -0.78757881     1.55545140     1.46168709
O       0.28920419     0.55219875     2.02189066    -0.66858297    -0.95916042     1.48003577
O       5.63076806     4.54862969     6.77371688     0.66858297     0.95916042    -1.48003577
O       2.37864990     0.55224634     6.41972268    -0.78792643     1.55570517    -1.46092784
O       3.54132234     4.54858205     2.37588496     0.78792643    -1.55570517     1.46092784
