# total energy = -4985.37553766 eV

CRYSTAL
PRIMVEC
        3.54879416     0.00000000     0.00000000
        1.36491452     3.27581262     0.00000000
       -2.45688728    -1.63792827     4.62614772
PRIMCOORD
6 1
Ti      1.02358996     2.45698558     1.15653669     0.00099579    -0.00099579     0.00000000
Ti      1.43323154    -0.81910120     3.46961040    -0.00099579     0.00099579     0.00000000
O       0.34126552     0.81894887     0.75356155     0.00055459     0.00089269    -1.34767379
O       2.11555581     0.81893544     3.87258559    -0.00055459    -0.00089269     1.34767379
O      -0.34123487    -0.81892843     3.06663531     0.00089269     0.00055459    -1.34767379
O       2.79805615     2.45681270     1.55951188    -0.00089269    -0.00055459     1.34767379
