# total energy = -19961.16567854 eV

CRYSTAL
PRIMVEC
        7.60600008     0.00000000     0.00000000
        0.00000000     7.60600008     0.00000000
       -1.89786986    -1.89786986     4.85670466
PRIMCOORD
24 1
Ti      3.81546201     6.57042301     1.19896801    -0.54888625     0.61347213     0.98980875
Ti      3.78191699     2.84697699     1.22280898     0.64813730     0.00946398    -0.03135281
Ti     -0.01058698     6.68269998     1.23548002     0.77757902     0.46477206    -0.99260585
Ti     -0.03423697     2.90983298     1.20130501    -0.14944054    -1.02302382     0.31068451
Ti      5.70040921     2.86870522     3.67254383     0.52944227     0.18307315    -0.11732205
Ti      5.74382820    -0.94077179     3.62411580    -0.52316878    -0.34570783     0.59316683
Ti      1.92163723     2.85511521     3.64256181    -0.40047029    -0.43465775    -0.59963239
Ti      1.89412525    -0.98937577     3.71558081     0.28263530     0.37640064    -2.31424721
O       3.68649802     4.78262900     0.71458799     0.48440553    -0.47155798     1.13765366
O       3.74098698     0.91183299     0.66249102     0.13712624    -0.15565619     2.49620682
O       0.02572399     4.78280601     0.79878099    -0.02083417    -0.86514877    -0.39175168
O      -0.02984200     0.98017301     0.85391698     0.38537431    -0.21118715    -1.09927068
O       5.72897425     4.69493221     3.90872479     0.16765836     1.22129220     1.03935393
O       5.73062221     0.88425122     3.95482682    -0.30424621     0.69500441     1.09459127
O       1.86496822     4.70482222     4.03832681    -0.02885627     0.31530067    -0.09055917
O       1.83324520     0.93308221     4.17050581     0.48687970     0.46519887    -1.26441115
O       3.84806721     2.97087421     3.22263283    -0.79828232    -0.85456199     0.10995995
O       3.84031625    -0.99894880     3.25837283    -1.04954270     0.02930287    -0.96545602
O      -0.09766580     2.69487621     3.24367879     2.48408175     0.55013401    -0.79545051
O      -0.01634475    -0.97586979     3.14501782     0.58319172    -0.08855320     1.04253824
O       5.75396501     6.65232700     1.56666502    -2.22845256    -0.09785982     0.17027985
O       5.77876898     2.89934601     1.57257101    -1.51108263     0.05483111    -0.21534257
O       1.81652098     6.68085299     1.59971902     2.29524187    -0.02390407     0.26505924
O       2.00976402     2.94334297     1.69892102    -1.69849092    -0.40642728    -0.37190095
