# total energy = -19959.20653340 eV

CRYSTAL
PRIMVEC
        7.60600008     0.00000000     0.00000000
        0.00000000     7.60600008     0.00000000
       -1.89786986    -1.89786986     4.85670466
PRIMCOORD
24 1
Ti      3.87109002     6.64731601     1.10195998     1.41754997     0.65757428     0.15790333
Ti      3.66745198     2.77815802     1.20210000     1.61948577    -0.50145966    -0.27134199
Ti      0.12972002     6.75750098     1.25553700    -1.32883968    -0.88446779    -0.58833753
Ti     -0.08229500     2.74384902     1.24405798    -1.62568419     1.23875642     2.90474113
Ti      5.60587920     2.85929322     3.77216081     3.26140238     0.05641748     0.03226144
Ti      5.70007820    -0.87885879     3.62104779     0.76982508    -0.90682714     0.13941041
Ti      2.00499323     2.76358125     3.68033681    -2.23449311    -0.39263331    -0.64731686
Ti      2.02048224    -0.95377479     3.53381482    -0.56437972     0.84862120     0.95053359
O       3.88988798     4.58158102     0.72835200    -0.50843070     2.73415428     0.56195774
O       3.87690102     0.96533302     0.60944698     0.28283816     0.06857340     0.65660291
O      -0.21230798     4.65404501     0.84288998     0.74491674     1.33884488     0.47340634
O      -0.11266099     0.89691803     0.74149697    -0.26829009     0.09473670     0.57361821
O       5.83838820     4.76203321     4.22169879    -0.15188129    -0.44037254    -1.91111300
O       5.72049624     0.84523821     4.30178479    -0.40401224     1.11606307    -3.46414499
O       1.65216324     4.79806822     4.08407682     0.81716888    -0.85954170    -1.58207647
O       1.91802522     0.94738222     4.04244079    -0.02937924    -0.70745729    -0.46820886
O       3.86761724     2.68308122     3.28268281    -3.57683520     0.41036082    -0.28727358
O       3.89914324    -0.79896176     3.05113479    -1.47973187    -0.90673252     1.11220308
O      -0.08499179     2.65045522     3.21528282     0.74320824     0.28835370     0.91882699
O      -0.13991976    -0.63808976     3.13863282     2.22988363    -0.99559836     0.41451906
O       5.72062102     6.69946500     1.47404302    -1.17189100    -0.35072945     0.05459303
O       5.57805702     2.83571499     1.77578402     0.04961768    -0.29601893    -0.87933740
O       2.00531999    -0.49673599     1.65392402    -0.90960264    -1.69554752    -0.11619334
O       1.78414798     2.80872901     1.55228198     2.31755494     0.08493000     1.26476699
