# total energy = -19952.54537901 eV

CRYSTAL
PRIMVEC
        5.52899661     0.00000000     0.00000000
        1.44852665     5.70345484     0.00000000
        0.00000000     0.00000000     9.97512754
PRIMCOORD
24 1
Ti      2.86239096     3.37986222     3.70070136     0.57612324    -2.02080813     0.94323551
Ti      4.11513247     2.32359299     6.27442674    -0.57612324     2.02080813    -0.94323551
Ti      5.35853416     2.32359496     1.28682287    -1.25957336    -0.51906118     0.40023915
Ti      1.61898930     3.37986047     8.68830535     1.25957336     0.51906118    -0.40023915
Ti      2.13812775     0.52813485     1.28686286     0.57612324    -2.02080813    -0.94323551
Ti      4.83939571     5.17532059     8.68826536    -0.57612324     2.02080813     0.94323551
Ti      0.89472598     0.52813266     6.27438675     1.25957336     0.51906118     0.40023915
Ti      6.08279747     5.17532272     3.70074135    -1.25957336    -0.51906118    -0.40023915
O       2.26001321     2.00828353     5.09023147     1.18660054     1.56821822    -0.69704304
O       4.71751017     3.69517169     4.88489664    -1.18660054    -1.56821822     0.69704304
O       1.52462504     2.00830655     0.10269956    -0.21904084    -0.24173907     0.77499094
O       5.45289846     3.69514877     9.87242827     0.21904084     0.24173907    -0.77499094
O       3.99324694     0.84344415     0.10266719    -1.18660054    -1.56821822    -0.69704304
O       2.98427649     4.86001107     9.87246063     1.18660054     1.56821822     0.69704304
O       4.72863522     0.84342117     5.09026383     0.21904084     0.24173907     0.77499094
O       2.24888816     4.86003411     4.88486427    -0.21904084    -0.24173907    -0.77499094
O       1.08195726     3.46916468     2.69453096     0.21582516     0.92557640     0.87268699
O       5.89556612     2.23429055     7.28059714    -0.21582516    -0.92557640    -0.87268699
O       3.53282773     2.23423736     2.29306484     0.97060646     0.77074759     0.02181170
O       3.44469571     3.46921791     7.68206310    -0.97060646    -0.77074759    -0.02181170
O       0.35769403     0.61743713     2.29303298     0.21582516     0.92557640    -0.87268699
O       6.61982941     5.08601814     7.68209496    -0.21582516    -0.92557640     0.87268699
O       2.72043247     0.61749031     7.28062894    -0.97060646    -0.77074759     0.02181170
O       4.25709096     5.08596490     2.69449910     0.97060646     0.77074759    -0.02181170
