# total energy = -4988.44844239 eV

CRYSTAL
PRIMVEC
        2.94505255     0.00000000     0.00000000
        1.13586621     4.47247252     0.00000000
       -0.00000731    -0.00006047     4.65150198
PRIMCOORD
6 1
Ti      2.04045561     2.23620593     2.32575104     0.00000000     0.00000000     0.00000000
Ti      0.00000000     0.00000000     0.00000000     0.00000000     0.00000000     0.00000000
O       1.69388836     0.87160718     0.90650925    -1.98605297     0.92547278     0.93322338
O       2.38702281     3.60080469     3.74499283     1.98605297    -0.92547278    -0.93322338
O       0.34656415     1.36457428     3.23226123     1.98584060    -0.92577257     0.93326940
O       0.78929464     3.10783768     1.41924086    -1.98584060     0.92577257    -0.93326940
