# total energy = -19075.00264478 eV

CRYSTAL
PRIMVEC
        7.60600008     0.00000000     0.00000000
        0.00000000     7.60600008     0.00000000
       -1.89786986    -1.89786986     4.85670466
PRIMCOORD
22 1
Ti      3.71665901     6.72193302     1.18641201     1.23282823     0.51926636     0.25297428
Ti      3.79121003     2.81857700     1.16304799    -0.62041925    -1.08040983     2.04629754
Ti      0.02693602     6.76131302     1.22964097    -1.63133676    -0.10888986    -0.68798118
Ti     -0.05749701     2.96495801     1.32738202     0.85241075    -0.54051833    -0.94457634
Ti      5.68342722     3.08696120     3.59844282    -0.96475668    -0.50249299     0.34858310
Ti      5.63437524    -0.81272878     3.61669679     0.16730894    -1.31527685     1.14893156
Ti      1.86669021     2.91413922     3.70642281     1.37425258    -0.31081795    -0.47142351
Ti      1.74964224    -0.98387677     3.58413582    -0.20849700    -0.89491572     1.56941069
O       3.50267301     4.58607902     0.75948101     0.61423137     1.96633569     0.24718929
O       4.03293401     0.93658801     1.04125303    -1.39651808    -0.95666233    -1.02342799
O      -0.08587700     4.77711699     0.66652002     0.29224789    -0.04022364     0.79590919
O      -0.12932198     1.08416703     0.73244598     0.03203467    -0.07086374     0.75667260
O       5.47302322     4.85193122     4.00991083    -0.24703323     0.72800967     1.07796471
O      -0.19521280    -1.21299078     3.38078380     2.17482189     0.89360163    -1.27669358
O       2.14739620     4.80268022     4.11379082    -0.30997694    -0.51824717    -0.20310360
O       1.76366120     0.74239123     4.07688282     0.39951461     1.67242686    -0.09147731
O       3.78678822     2.77662420     3.21256079     0.20401068    -0.00673141     0.41112983
O       0.08761424     3.13478422     3.27623679    -2.80712556     0.10065693     0.81044981
O       5.56957399     6.67418001     1.81051699    -0.29265515    -0.06516643    -1.65126976
O       5.69970498     2.75561602     1.68339798    -0.09594975     0.88125519    -0.24060855
O       1.88073098     6.79886100     1.71418599    -0.27763219    -0.05465705    -1.16688840
O       1.77892998     2.74403000     1.80580101     1.50823873    -0.29567877    -1.70806340
