# total energy = -19516.04648300 eV

CRYSTAL
PRIMVEC
        5.17600016     0.00000000     0.00000000
        0.00000000     5.50899976     0.00000000
        0.00000000     0.00000000     9.26300011
PRIMCOORD
23 1
Ti      1.98003802     3.11534902     3.30905499    -1.14153037     0.20558986     3.09680209
Ti      3.35990802     2.19495500     5.90216301     0.59733356     1.20462450    -3.61844518
Ti      4.26169602     2.17876202     1.49613898     1.00667982    -0.25548342    -0.97446132
Ti      0.90041202     3.39993801     7.83665802    -2.78405273     1.19567166     1.14768251
Ti      1.92013701     5.45099199     1.45400498    -0.94791492     2.24563447     0.94107579
Ti      3.36311002     5.34137202     7.89259698    -0.26622369    -0.22470113     1.80906974
Ti      0.68413300     0.69954899     5.92283500    -0.65784656    -1.05905501    -4.26016628
Ti      4.47091201     4.83987201     3.34389703     1.63613162     1.56686093     2.90233226
O       1.65923299     2.04149302     4.85250702    -0.43093865    -0.36951934    -0.34470741
O       3.48775698     3.59928400     4.59125702     0.08663027     0.56892363    -1.13714407
O       5.01352899     3.20369098     0.08045600    -0.28961405    -1.02416359     0.38537971
O       3.80182098     0.79412900     0.10894199    -0.71964767    -0.11780696    -0.62105354
O       1.76685299     4.86280502     9.09734403    -0.18206297    -0.73577698    -2.58386245
O       4.26723401     0.80960902     4.66103301    -0.99148999     0.96972097     1.27771842
O       0.90993399     4.89204598     4.28638801     1.55969552    -0.65689756     0.75505537
O       0.15501501     3.25544399     2.72812198     0.65233179    -1.25593577    -1.14203097
O       5.01320698     2.11699401     6.90201902    -0.14182570     0.34762433     0.03906690
O       2.43013899     1.67732101     2.22377098     1.67249706    -0.41889740    -0.88392400
O       2.51794701     3.49801699     7.03649598     1.21668246     1.40545858     1.00256683
O       0.18923098     0.66876998     2.08183400    -0.79930973    -0.54093717    -0.47913656
O       4.99848702     4.87595502     7.08197601     0.97758624    -0.77533316     0.25002445
O       2.31140199     1.02736302     6.88208698    -0.04025423    -2.15659200     1.99356343
O       3.12442600     4.14178397     2.01565398    -0.01285681    -0.11900895     0.44459430
