# total energy = -19073.72984016 eV

CRYSTAL
PRIMVEC
        7.60600008     0.00000000     0.00000000
        0.00000000     7.60600008     0.00000000
       -1.89786986    -1.89786986     4.85670466
PRIMCOORD
22 1
Ti      3.70860001     6.65352998     1.32991699     1.48684534    -0.65192067     1.06765870
Ti      3.78875401     2.79994599     1.34204198     0.20782492     0.17023126    -0.14895383
Ti      0.13571603     6.73032403     1.09254401    -1.34423545    -2.01256080     0.08473639
Ti      0.23080500     2.77410701     0.89165202    -1.27714326     1.05926173     1.52153648
Ti      5.76575725     3.00938223     3.35070283     2.73605844    -0.55820984     1.12114075
Ti      5.88383421    -0.98782877     3.43626883     0.80568453     1.07090523    -0.64920816
Ti      1.95312624     2.74983725     3.80413883    -2.50643108     0.96431754    -0.40628022
Ti      1.18482024    -0.83107679     4.01570083     0.36948643    -1.20308132    -0.79281101
O       3.56293000     4.60840798     1.05268098     0.40940848     1.28713611    -0.04819689
O       4.06170099     1.00341198     0.80681703    -0.89304190    -1.51933073     1.06794872
O       0.18254700     4.92585601     0.42730999     0.52493539    -1.10507983     1.66794672
O      -0.06334998     0.91973599     0.70359799     0.51110336     1.09846618    -0.74343270
O       5.67547824     4.83883720     3.78262582    -0.31474094     0.30652832    -0.25100970
O       5.97328422     0.97976120     3.83865579    -0.35015096    -1.10093753     0.41333661
O       1.89054822     4.62261623     4.46053680    -0.66599207     0.64539444    -2.93367813
O       1.57433222     0.93473224     4.18809979    -0.10526820     0.21768073     0.25345096
O       3.81991921     2.75060223     3.21242384     0.67832489     0.06789309     1.02411808
O       0.10609924     2.95767622     3.24887283     0.08198942     0.48432762    -0.25467609
O       5.78442101     6.51086602     1.41539701    -0.40611926     0.52940165     1.99712209
O       5.92606002     2.87245899     1.40932099    -0.96575453     0.50025381     0.30223946
O       1.79274801    -0.82883001     2.31757997     0.83943130    -0.53808401    -2.32539218
O       1.91393701     2.46443597     1.86627798     0.17778542     0.28740650    -1.96759605
