# total energy = -4987.84282325 eV

CRYSTAL
PRIMVEC
        3.22013860     0.00000000     0.00000000
        0.99910376     4.94556411     0.00000000
       -0.00000665    -0.00006606     5.07114608
PRIMCOORD
6 1
Ti      2.10961780     2.47274903     2.53557315     0.00000000     0.00000000     0.00000000
Ti      0.00000000     0.00000000     0.00000000     0.00000000     0.00000000     0.00000000
O       1.80477856     0.96380478     0.98829174     0.44789714    -0.37218866    -0.54176352
O       2.41445704     3.98169328     4.08285456    -0.44789714     0.37218866     0.54176352
O       0.30483651     1.50891749     3.52386581    -0.44822932     0.37277616    -0.54176480
O       0.69426059     3.43658044     1.54728050     0.44822932    -0.37277616     0.54176480
