# total energy = -19072.81094383 eV

CRYSTAL
PRIMVEC
        5.93400000     0.00000000     0.00000000
        0.00000000     9.29699974     0.00000000
        0.00000000     0.00000000     4.64899994
PRIMCOORD
22 1
Ti      4.32416698     7.00945201     2.40121300     0.24582275    -0.60436348     0.15791027
Ti      4.48466998     2.44641299     2.00864100     2.55422173    -1.47522421     2.81347259
Ti      1.42678501     7.12609299     2.49027099     0.15449585    -0.15257009     0.43773202
Ti      1.69241801     2.37437599     2.21044899    -0.47043826    -0.80422286     1.41173465
Ti      3.03862499     4.41588101     4.41167601    -0.80121158     1.58547907     0.11139026
Ti      3.01137300     0.12815599     0.19755700    -1.13453209     0.44405848    -1.15994848
Ti      5.90119599     4.63100898     4.64396101    -0.50543922     0.89453674    -0.59597525
Ti      5.88711998     9.08322002     4.58198499    -0.57408693    -0.03655622     1.77589838
O       4.24247799     5.46536597     0.87556398     0.56487877     0.17799060     1.39116479
O       4.51193399     0.87148799     0.93914801     1.51586668     0.50474939     0.71652918
O       1.58041299     0.90566998     1.04273499    -2.40795547    -0.33767724    -0.23566278
O       4.28293200     8.29512698     4.09074298     1.34400302    -1.28706387    -1.78661114
O       4.52887602     3.91728301     3.52342501     0.61835414    -1.60249360    -1.08566748
O       1.42258498     8.29689300     3.91083102     0.96162276     1.12389877     0.80206236
O       1.39631598     3.76413102     3.54254397     0.16575857     0.38350152     0.56785380
O       2.80869298     6.12845301     3.41571500     0.55678597    -0.92439909    -0.92910601
O       3.01951899     1.36140002     3.35947902    -0.11522532     1.29148462    -0.96902292
O       5.91089300     6.26378602     3.49849902    -0.35338926    -1.39471934    -0.31440361
O       2.87192399     8.16285801     1.79656798     0.86563291    -1.61151664    -0.53029382
O       3.09289302     2.89587599     1.12543999    -1.90112915     2.97382695    -2.30303797
O       5.90580798     7.94508401     1.61538198    -0.80521556     0.16056751    -0.85682456
O       0.11270798     3.05227898     1.18964899    -0.47882032     0.69071272     0.58080625
