# total energy = -19517.52122693 eV

CRYSTAL
PRIMVEC
        5.93400000     0.00000000     0.00000000
        0.00000000     9.29699974     0.00000000
        0.00000000     0.00000000     4.64899994
PRIMCOORD
23 1
Ti      4.45673900     7.09623702     2.14737302    -0.24568597     0.71083110    -0.04991490
Ti      4.50677102     2.31314801     2.22060602     0.38005187    -0.15790384     1.30800448
Ti      1.29886699     7.02146899     2.29323301     0.45561970    -0.63749781    -0.92794876
Ti      1.56582299     2.33094398     2.49949000    -0.61803969    -1.15140341    -0.57252524
Ti      2.93036099     4.54309300     0.22176300     1.27341079    -0.32203670    -0.33788885
Ti      2.99871100     0.08292001     4.63989302    -0.11248940     0.31848421     1.37025683
Ti      5.92447301     4.56113001     0.13498999    -1.02688870    -0.37083909    -1.30617951
Ti      0.08921299     9.27680301     4.45460599    -0.84865179     0.99840832     1.13194993
O       4.54118500     5.55597202     0.98727298    -1.16982820     0.00493318    -0.58055479
O       4.41822299     0.96823800     0.95204200    -0.01926991    -0.92089159    -1.03510595
O       1.47947201     5.55441402     0.87589101     0.26729147     0.50128328     0.10322649
O       1.55871101     0.93120199     0.92526600    -1.00611109    -0.36180063    -0.69484140
O       4.30235000     8.54455198     3.68400602     1.70976084    -1.95941531    -0.95483042
O       4.47091503     3.65729802     3.73700598     0.04491745     1.17501412     0.85266220
O       1.38620600     8.26400802     3.62587500     1.15756224     1.19789155     1.38951311
O       1.52969897     3.60495101     3.91632901    -0.06141185     0.75426682    -0.81772244
O       3.00964502     1.43669501     3.31248501    -0.23883680     0.32024799    -0.66455200
O       5.80575300     6.18866200     3.15798102     0.15916626    -0.97457624     0.75408838
O       0.00110000     1.25548202     3.08128699     0.39643237     0.69918271     0.66093574
O       2.88338100     7.80827698     1.36629698     0.45686540    -0.32294636     0.34709597
O       2.99627499     3.29395799     1.52119499    -0.58983725    -0.07191841     0.15027358
O       0.02214400     7.91492900     1.31979002    -0.74243640     0.32832408    -0.45114521
O       0.04844798     3.21971802     1.42537602     0.37840842     0.24236230     0.32520276
