# total energy = -4989.42608323 eV

CRYSTAL
PRIMVEC
        4.00452015     0.00000000     0.00000000
        0.59730932     3.95972262     0.00000000
       -2.30095082    -1.97989236     5.12517528
PRIMCOORD
6 1
Ti      0.44783636     2.96994332     1.28129354     0.00005476    -0.00005476     0.00000000
Ti      1.85304270    -0.99011270     3.84388118    -0.00005476     0.00005476     0.00000000
O       0.14936945     0.98992473     0.83484904    -0.00045997    -0.00116420    -0.79384254
O       2.15150944     0.98990573     4.29032568     0.00045997     0.00116420     0.79384254
O      -0.14934495    -0.98990365     3.39743668    -0.00116420    -0.00045997    -0.79384254
O       2.45022378     2.96973412     1.72773805     0.00116420     0.00045997     0.79384254
