# total energy = -19519.11510030 eV

CRYSTAL
PRIMVEC
        7.60600008     0.00000000     0.00000000
        0.00000000     7.60600008     0.00000000
       -1.89786986    -1.89786986     4.85670466
PRIMCOORD
23 1
Ti      3.77116998     6.65575702     1.14302799     0.44811722    -0.49018203     0.88682035
Ti      3.79257499     2.73479702     1.20484002     0.47934842     0.48948937     0.55393307
Ti     -0.03256398     6.70890701     1.17825897    -0.32995596    -0.52774663    -0.33249544
Ti      0.03806801     2.85177700     1.18431498    -0.46026415     0.59766549     0.17694107
Ti      5.63592324     2.88709921     3.62993982    -0.69591227    -0.07694415     1.19540298
Ti      5.67722923    -0.87990175     3.58951581    -0.36227243    -0.10340029     0.07669784
Ti      1.93612520     2.80307121     3.71381780     0.81655336    -0.06323913     1.02405689
Ti      1.87438424    -0.99613278     3.56672880     0.55162730     0.30547057    -0.05836483
O       3.86770101     4.73203399     0.83824597    -0.78983136    -0.69292233     0.25265057
O       3.99731800     0.88545102     0.73551198    -0.62956415     1.06953586     0.42818422
O       0.02608098     4.70047900     0.88609402     0.36150135     1.40186984    -0.15625551
O      -0.05067602     1.01494202     0.72208702     0.05361369    -1.25244601     0.19708104
O       5.58590424     4.75130621     4.06033381     0.70198856     0.33042493    -0.04985834
O       5.77612722     1.00526125     4.11414081     0.36033947    -0.37042411    -1.28266599
O       1.94352521     4.74374723     4.04291684    -0.62794204    -0.37379817    -0.54121947
O       1.96989724     0.86735824     4.11792380    -0.94448533     0.81455587     0.36729251
O       3.78297624     2.77490220     3.43806782     0.29126470    -0.08741523    -1.22278524
O       3.78823621    -0.81540478     3.18528382     0.24844168    -0.40986074    -0.34663369
O      -0.00168178    -0.90624075     3.20649382    -0.07860431    -0.13035344     0.03158936
O       5.70725300     6.64586300     1.57243501     0.07792965     0.01717678     0.51381305
O       5.76221600     2.83197598     1.77414002    -0.05627247     0.05700755    -0.50469154
O       1.88186098     6.80486700     1.56044798     0.18708639    -0.43483258     0.19760452
O       1.83919898     2.77048098     1.84755299     0.39729266    -0.06963141    -1.40709689
