# total energy = -19909.97710703 eV

CRYSTAL
PRIMVEC
        8.11558016     0.00000000     0.00000000
        0.00002658     3.70175624     0.00000000
        0.00000000     0.00000000    12.35127871
PRIMCOORD
24 1
Ti      2.94152309     2.19365734     4.58223631     0.03908952    -0.11461854     2.53719948
Ti      5.17408329     1.50809896     7.76904257    -0.03908952     0.11461854    -2.53719948
Ti      6.99917427     1.50810022     1.59335373     0.03874500     0.11473372    -2.53763708
Ti      1.11643212     2.19365619    10.75792527    -0.03874500    -0.11473372     2.53763708
Ti      2.94150998     0.34277927     1.59340328     0.03908952    -0.11461854    -2.53719948
Ti      5.17409640     3.35897709    10.75787572    -0.03908952     0.11461854     2.53719948
Ti      1.11641901     0.34277790     7.76899303    -0.03874500    -0.11473372    -2.53763708
Ti      6.99918738     3.35897846     4.58228586     0.03874500     0.11473372     2.53763708
O       2.56864163     1.30345129     6.30276303     2.30474441     0.66856523    -1.63214718
O       5.54696476     2.39830495     6.04851586    -2.30474441    -0.66856523     1.63214718
O       1.48921443     1.30346622     0.12716333    -2.30652567     0.66847319    -1.63407756
O       6.62639201     2.39829008    12.22411520     2.30652567    -0.66847319     1.63407756
O       5.54695171     0.54742683     0.12712326    -2.30474441    -0.66856523    -1.63214718
O       2.56865468     3.15432947    12.22415527     2.30474441     0.66856523     1.63214718
O       6.62637896     0.54741190     6.30280309     2.30652567    -0.66847319    -1.63407756
O       1.48922737     3.15434440     6.04847579    -2.30652567     0.66847319     1.63407756
O       0.29487384     2.25161797     3.33638854    -1.60719975     0.43130657     0.18165031
O       7.82073255     1.45013827     9.01489034     1.60719975    -0.43130657    -0.18165031
O       4.35267425     1.45010378     2.83929016    -1.60378301    -0.43111760    -0.18189199
O       3.76293214     2.25165252     9.51198854     1.60378301     0.43111760     0.18189199
O       0.29486079     0.40073985     2.83925075    -1.60719975     0.43130657    -0.18165031
O       7.82074560     3.30101645     9.51202796     1.60719975    -0.43130657     0.18165031
O       3.76291909     0.40077434     9.01492969     1.60378301     0.43111760    -0.18189199
O       4.35268730     3.30098196     3.33634913    -1.60378301    -0.43111760     0.18189199
