# total energy = -19517.90394460 eV

CRYSTAL
PRIMVEC
        5.93400000     0.00000000     0.00000000
        0.00000000     9.29699974     0.00000000
        0.00000000     0.00000000     4.64899994
PRIMCOORD
23 1
Ti      4.56522801     7.13853898     2.22180900    -0.14435078    -0.35950746     0.67059229
Ti      4.46646798     2.30103001     2.38110098     0.03295821    -0.87657115     0.12077839
Ti      1.39182999     7.03271099     2.13763902    -0.18816574     0.21066727     0.81817829
Ti      1.47558399     2.27544799     2.33492699    -0.25829518    -0.65749920     0.52529534
Ti      3.00206598     4.47253500     0.20895098    -0.98335631    -1.20171118     0.05043812
Ti      2.94853198     9.25219298     4.62316800    -0.19533089     0.87450759    -0.38150686
Ti      5.91435001     4.62761198     0.02999303     0.50078449    -0.43115102    -0.93310176
Ti      5.90841201     0.08502698     4.60929599     0.47238125     0.83361263    -0.35326945
O       4.35961302     5.50312801     1.00493998     0.03763068     0.67587745    -0.05843734
O       4.40885899     0.90034403     0.81053503     0.70732000     0.86245913     1.14856749
O       1.45578302     5.52832098     0.88600099     0.94871736     1.05171785     0.81745016
O       1.49163600     0.95181101     0.85126400    -0.06833763    -0.07871898     0.44043425
O       4.48867998     8.44432797     3.61617698    -0.15033554    -0.68469968     0.09879236
O       4.44578001     3.56252100     3.92240100    -0.56359502     1.00820603    -0.63564456
O       1.53489899     8.46597000     3.72082300    -0.88951255    -1.61908802    -1.26260444
O       1.47107899     3.67167698     3.79806102     0.50554412     0.94103876     0.15246262
O       2.98028399     1.33152400     3.18348102     0.34757034     0.51841866    -0.27672819
O       5.90752701     6.07363400     3.28361400     0.13315311     0.41961550    -0.83303413
O       0.02090398     1.50922701     3.33985501    -0.37334026    -0.31232847    -0.99554180
O       2.98946702     7.97379600     1.36893598    -0.28645777    -1.75002073     0.97684524
O       2.93785101     3.19546699     1.57505502     0.75200065     1.31978091    -1.05086142
O       5.92050699     8.00868402     1.31336502     0.48721986    -0.97344753     0.51506157
O       0.07183798     3.19953901     1.40826899    -0.82420265     0.22884164     0.44583357
