# total energy = -19518.40276282 eV

CRYSTAL
PRIMVEC
        7.60600008     0.00000000     0.00000000
        0.00000000     7.60600008     0.00000000
       -1.89786986    -1.89786986     4.85670466
PRIMCOORD
23 1
Ti      3.76657698     6.67464500     1.21500901    -0.02949828     0.65896576     1.03116342
Ti      3.73778900     2.89060602     1.13742200     0.55169107    -0.85464246     2.55840466
Ti      0.03200998     6.61270898     1.18908398    -0.30075799     0.68306009    -0.92565842
Ti     -0.02408302     2.80673798     1.09822002    -0.86328266    -0.63062628     0.70926144
Ti      5.66906424     2.74248221     3.69752983    -1.60935485     1.51976216    -1.50294482
Ti      5.79128524    -0.99516576     3.55833282    -0.96756201    -0.65340703     1.32070265
Ti      2.03076024     2.93230920     3.77464583     1.19913159    -0.49503447    -2.01894716
Ti      1.91991221    -0.93469779     3.69160881     0.48005831     0.50686541     0.14573327
O       3.88925398     4.73603098     0.77013001    -0.15444571     1.04171934     1.75362465
O       3.59899602     1.00319899     0.84640499     0.03792996    -0.66882363    -0.56382231
O       7.25480298     4.69899799     0.70991298     0.78818791     0.99685460     1.07094405
O       0.11171202     0.87205802     0.73714502     0.17190788    -0.54921715    -0.15711272
O       5.59336220     4.67800521     3.95417884     1.30641194     1.05349268     0.18271397
O       5.75204722     0.94794622     4.12798980     0.54688027    -0.94844071    -1.89684183
O       1.93100620     4.79919521     4.13368280    -0.31051456     0.31180397    -0.48775619
O       1.97818622     1.01113321     4.14388179    -0.50974710    -0.45740765    -1.36307625
O       3.83212723     2.93439422     3.19344982    -0.57150888    -0.37776821    -0.53258853
O       3.78152021    -0.81444776     3.30019683    -0.66553981    -0.40943727    -0.56996493
O       0.06676222    -0.70009076     3.17487083    -0.10157327    -0.92738517    -0.21812964
O       5.63702203     6.80028200     1.70346099     0.73864222    -0.37397301    -0.93036302
O       5.82641102     2.56680600     1.58750598    -1.19239710     0.45042736     1.15035338
O       1.88611102     6.41953802     1.45606401    -0.03068664     0.07028653     1.03265131
O       1.65327599     2.96093298     1.80980498     1.48602747     0.05292592     0.21165303
