# total energy = -4980.05940748 eV

CRYSTAL
PRIMVEC
        4.47395332     0.00000000     0.00000000
        0.00000000     2.65897107     0.00000000
        0.00000000    -0.00010614     6.06205996
PRIMCOORD
6 1
Ti      2.23697666     1.32943230     3.03102971     0.00000000     0.00000000     0.00000000
Ti      0.00000000     0.00000000     0.00000000     0.00000000     0.00000000     0.00000000
O       2.23697666     0.51817355     1.18140611     0.00000000    -0.13594430     2.36327894
O       2.23697666     2.14069104     4.88065331     0.00000000     0.13594430    -2.36327894
O       0.00000000     0.81121676     4.21243715     0.00000000     0.13591448     2.36326814
O       0.00000000     1.84764783     1.84962226     0.00000000    -0.13591448    -2.36326814
