# total energy = -19932.82266320 eV

CRYSTAL
PRIMVEC
        7.08042955     0.00000000     0.00000000
        0.00002787     5.02381204     0.00000000
        0.00000000     0.00000000    11.00035767
PRIMCOORD
24 1
Ti      2.56633179     2.97710634     4.08105424     0.51701818    -0.26621778     0.99846463
Ti      4.51412575     2.04670570     6.91930356    -0.51701818     0.26621778    -0.99846463
Ti      6.10642450     2.04670745     1.41908068     0.51749358     0.26632216    -0.99818566
Ti      0.97403303     2.97710484     9.58127717    -0.51749358    -0.26632216     0.99818566
Ti      2.56631785     0.46520044     1.41912478     0.51711409    -0.27256866    -0.99744776
Ti      4.51413968     4.55861178     9.58123307    -0.51711409     0.27256866     0.99744776
Ti      0.97401910     0.46519857     6.91925940    -0.51697036    -0.27298441    -0.99872045
Ti      6.10643844     4.55861365     4.08109833     0.51697036     0.27298441     0.99872045
O       2.24101053     1.76896965     5.61339834     0.90524719     1.08042834    -1.06667319
O       4.83944701     3.25484246     5.38695946    -0.90524719    -1.08042834     1.06667319
O       1.29926542     1.76898989     0.11325485    -0.90444886     1.08155834    -1.06865063
O       5.78119224     3.25482221    10.88710258     0.90444886    -1.08155834     1.06865063
O       4.83943314     0.74293637     0.11321914    -0.90465301    -1.08048979    -1.06660146
O       2.24102440     4.28087567    10.88713829     0.90465301     1.08048979     1.06660146
O       5.78117831     0.74291619     5.61343399     0.90378783    -1.08076053    -1.06781913
O       1.29927917     4.28089597     5.38692374    -0.90378783     1.08076053     1.06781913
O       0.25726547     3.05576727     2.97147106    -1.66271863     0.47063058     0.39360210
O       6.82319206     1.96804483     8.02888673     1.66271863    -0.47063058    -0.39360210
O       3.79748816     1.96799799     2.52874282    -1.66340023    -0.47056887    -0.39370597
O       3.28296937     3.05581411     8.47161479     1.66340023     0.47056887     0.39370597
O       0.25725154     0.54386119     2.52870765    -1.66284153     0.47055936    -0.39399471
O       6.82320600     4.47995086     8.47164990     1.66284153    -0.47055936     0.39399471
O       3.28295550     0.54390803     8.02892178     1.66387357     0.47084938    -0.39406979
O       3.79750204     4.47990407     2.97143595    -1.66387357    -0.47084938     0.39406979
