# total energy = -19072.76526855 eV

CRYSTAL
PRIMVEC
        5.17600016     0.00000000     0.00000000
        0.00000000     5.50899976     0.00000000
        0.00000000     0.00000000     9.26300011
PRIMCOORD
22 1
Ti      1.79096003     3.43297999     3.29488802    -0.04204167     0.21880482     0.52523903
Ti      3.66237399     2.35118400     6.04171498    -0.95351196     0.76446382    -0.19471743
Ti      4.41625398     2.15718900     1.59080598     0.83137294    -1.79558969    -0.52030020
Ti      1.17351601     2.85123697     7.90151197    -0.36448615    -0.61351378     0.68845246
Ti      1.80583901     0.54415799     1.09724802    -1.02386328    -0.52066658    -1.59464068
Ti      3.36026099     5.23466798     7.81066198     0.18968681     1.35319858     0.93592792
Ti      1.00003102     5.29914500     6.36101498    -0.58827916     1.06684726    -0.30142288
Ti      4.17336998     5.23525902     3.67077902     0.28975418    -0.71677806    -0.38414198
O       3.27334198     3.70841400     4.66403101    -0.61604606     1.18593849    -1.83604576
O       0.82271198     2.59293598     0.42283802    -0.84216695    -1.01007496    -0.18190510
O       5.07264301     3.90361399     6.92821700    -2.82960138    -1.39828649     0.53015627
O       3.48075300     0.69283399     0.12255697     0.75648028     0.31608768     0.67966623
O       1.42514699     5.26566300     8.58262998    -0.46679449    -1.36414171     1.08829952
O       3.76828998     1.33034198     4.49729102    -0.03666163    -1.88949850     0.82311713
O       0.71843300     4.82377798     4.46429899     0.60687056     0.63896668     1.38742075
O       5.01922600     3.04710802     3.02585599     1.59287690     0.13516371    -1.05645537
O       4.69652699     1.03100202     7.06345000     0.75527315     0.21439666    -0.75023121
O       2.56971198     1.88376999     2.15935502    -0.02692872     1.83541455     1.38039263
O       2.30045897     3.92245498     6.73634299     1.46972127    -0.76873416     0.27358399
O       5.16793899     0.32396501     2.12879800     0.35149821     1.34014920    -0.39104745
O       2.20949399     1.28829202     7.05748601     0.73677200     1.35186212    -1.65214368
O       2.57448902     4.71149398     2.25486803     0.21007540    -0.34401013     0.55079555
