# total energy = -19929.37861993 eV

CRYSTAL
PRIMVEC
        7.33404118     0.00000000     0.00000000
        0.00002581     4.20303573     0.00000000
        0.00000000     0.00000000    11.09579132
PRIMCOORD
24 1
Ti      2.65825257     2.49071521     4.11645959     0.24989872     0.23579493     1.63014531
Ti      4.67581459     1.71232086     6.97933219    -0.24989872    -0.23579493    -1.63014531
Ti      6.32514747     1.71232235     1.43139200     0.25161750    -0.23576099    -1.63012500
Ti      1.00891969     2.49071384     9.66439989    -0.25161750     0.23576099     1.63012500
Ti      2.65823978     0.38919741     1.43143647     0.24989872     0.23579493    -1.63014531
Ti      4.67582738     3.81383879     9.66435542    -0.24989872    -0.23579493     1.63014531
Ti      1.00890690     0.38919575     6.97928772    -0.25161750     0.23576099    -1.63012500
Ti      6.32516026     3.81384039     4.11650406     0.25161750    -0.23576099     1.63012500
O       2.32127950     1.47996040     5.66209756     1.65363801     0.59750017    -0.83080447
O       5.01278766     2.72307562     5.43369422    -1.65363801    -0.59750017     0.83080447
O       1.34580227     1.47997733     0.11423737    -1.65372542     0.59702040    -0.83132101
O       5.98826495     2.72305874    10.98155406     1.65372542    -0.59702040     0.83132101
O       5.01277488     0.62155776     0.11420138    -1.65363801    -0.59750017    -0.83080447
O       2.32129229     3.58147832    10.98159005     1.65363801     0.59750017     0.83080447
O       5.98825217     0.62154082     5.66213355     1.65372542    -0.59702040    -0.83132101
O       1.34581488     3.58149526     5.43365817    -1.65372542     0.59702040     0.83132101
O       0.26647836     2.55652462     2.99725015    -1.54001217     0.57013771     0.71420464
O       7.06758880     1.64651146     8.09854163     1.54001217    -0.57013771    -0.71420464
O       3.93350801     1.64647216     2.55068098    -1.53996178    -0.57040305    -0.71406786
O       3.40055916     2.55656392     8.54511057     1.53996178     0.57040305     0.71406786
O       0.26646558     0.45500670     2.55064556    -1.54001217     0.57013771    -0.71420464
O       7.06760159     3.74802938     8.54514599     1.54001217    -0.57013771     0.71420464
O       3.40054637     0.45504600     8.09857699     1.53996178     0.57040305    -0.71406786
O       3.93352080     3.74799008     2.99721474    -1.53996178    -0.57040305     0.71406786
