# total energy = -19901.04437931 eV

CRYSTAL
PRIMVEC
        8.55034339     0.00000000     0.00000000
        0.00002800     3.90006461     0.00000000
        0.00000000     0.00000000    13.01295435
PRIMCOORD
24 1
Ti      3.09910469     2.31117469     4.82771325     0.17825182    -0.26130825     2.76918532
Ti      5.45126633     1.58888998     8.18524128    -0.17825182     0.26130825    -2.76918532
Ti      7.37413003     1.58889131     1.67871197     0.17558173     0.26209398    -2.77009600
Ti      1.17624098     2.31117349    11.33424270    -0.17558173    -0.26209398     2.77009600
Ti      3.09909087     0.36114245     1.67876417     0.17825182    -0.26130825    -2.76918532
Ti      5.45128014     3.53892229    11.33419049    -0.17825182     0.26130825     2.76918532
Ti      1.17622717     0.36114100     8.18518908    -0.17558173    -0.26209398    -2.77009600
Ti      7.37414385     3.53892374     4.82776546     0.17558173     0.26209398     2.77009600
O       2.70624743     1.37327904     6.64041105     1.57403868     0.93847486    -2.20680514
O       5.84412359     2.52678558     6.37254349    -1.57403868    -0.93847486     2.20680514
O       1.56899378     1.37329477     0.13397565    -1.57525070     0.93868903    -2.20909240
O       6.98137730     2.52676991    12.87897852     1.57525070    -0.93868903     2.20909240
O       5.84410984     0.57675327     0.13393343    -1.57403868    -0.93847486    -2.20680514
O       2.70626118     3.32331140    12.87902073     1.57403868     0.93847486     2.20680514
O       6.98136355     0.57673754     6.64045326     1.57525070    -0.93868903    -2.20909240
O       1.56900740     3.32332714     6.37250128    -1.57525070     0.93868903     2.20909240
O       0.31067065     2.37224036     3.51512364    -1.98604629     0.57766873     0.07185182
O       8.23970036     1.52782425     9.49783089     1.98604629    -0.57766873    -0.07185182
O       4.58585322     1.52778791     2.99139499    -1.98413750    -0.57762117    -0.07174537
O       3.96451779     2.37227676    10.02155936     1.98413750     0.57762117     0.07174537
O       0.31065690     0.42220806     2.99135347    -1.98604629     0.57766873    -0.07185182
O       8.23971411     3.47785662    10.02160088     1.98604629    -0.57766873     0.07185182
O       3.96450404     0.42224439     9.49787236     1.98413750     0.57762117    -0.07174537
O       4.58586697     3.47782028     3.51508212    -1.98413750    -0.57762117     0.07174537
