# total energy = -19919.38170730 eV

CRYSTAL
PRIMVEC
        6.36816576     0.00000000     0.00000000
        0.33870594     6.76918557     0.00000000
        0.00000000     0.00000000    11.40118037
PRIMCOORD
24 1
Ti      2.50887054     4.01141293     4.22975660    -0.00683348    -1.13785395     0.68177839
Ti      4.19800090     2.75777238     7.17142390     0.00683348     1.13785395    -0.68177839
Ti      5.63012070     2.75777470     1.47078809     0.10290536     0.65230608    -0.58197430
Ti      1.07675081     4.01141088     9.93039254    -0.10290536    -0.65230608     0.58197430
Ti      2.33951770     0.62682041     1.47083378    -0.00683348    -1.13785395    -0.68177839
Ti      4.36735374     6.14236511     9.93034685     0.00683348     1.13785395     0.68177839
Ti      0.90739796     0.62681790     7.17137815    -0.10290536    -0.65230608    -0.58197430
Ti      5.79947355     6.14236761     4.22980236     0.10290536     0.65230608     0.58197430
O       2.13482869     2.38354521     5.81793508     1.51716920     1.48813244    -0.14063065
O       4.57204275     4.38564011     5.58324543    -1.51716920    -1.48813244     0.14063065
O       1.28782089     2.38357253     0.11738154    -1.30039427     1.10995670     0.17279671
O       5.41905062     4.38561285    11.28379864     1.30039427    -1.10995670    -0.17279671
O       4.40268991     1.00104738     0.11734457    -1.51716920    -1.48813244    -0.14063065
O       2.30418153     5.76813793    11.28383561     1.51716920     1.48813244     0.14063065
O       5.24969778     1.00102013     5.81797211     1.30039427    -1.10995670     0.17279671
O       1.45717360     5.76816532     5.58320839    -1.30039427     1.10995670    -0.17279671
O       0.43739034     4.11740224     3.07974331     0.48246512     0.06456659     0.59472569
O       6.26948117     2.65178307     8.32143726    -0.48246512    -0.06456659    -0.59472569
O       3.54814822     2.65172001     2.62088320     0.52152970     0.61771676    -0.07973508
O       3.15872328     4.11746531     8.78029711    -0.52152970    -0.61771676     0.07973508
O       0.26803750     0.73280952     2.62084682     0.48246512     0.06456659    -0.59472569
O       6.43883401     6.03637580     8.78033349    -0.48246512    -0.06456659     0.59472569
O       2.98937044     0.73287259     8.32147358    -0.52152970    -0.61771676    -0.07973508
O       3.71750106     6.03631273     3.07970686     0.52152970     0.61771676     0.07973508
