# total energy = -19961.68172662 eV

CRYSTAL
PRIMVEC
        7.60600008     0.00000000     0.00000000
        0.00000000     7.60600008     0.00000000
       -1.89786986    -1.89786986     4.85670466
PRIMCOORD
24 1
Ti      3.77385799     6.56140398     1.24893800    -0.18978065     0.85272005    -0.46883904
Ti      3.80043702     2.83607398     1.24003798    -0.79141130    -0.95224003    -0.48550262
Ti      0.02609098     6.71111198     1.16002601     0.00015247    -0.26411976     1.39699734
Ti     -0.01465202     2.89862702     1.19017298     0.69710089     0.34521058    -0.18241598
Ti      5.72773920     2.91523821     3.60263882     0.31206108    -0.33885815     0.88111892
Ti      5.71626521    -0.94662576     3.60017979     1.06246275     0.37778261     0.31080792
Ti      1.89646823     2.80260622     3.63014779    -0.56609953    -0.15195765    -0.19940429
Ti      1.91279822    -1.03206376     3.63062579    -1.09798384     0.28666680     0.81298466
O       3.62390302     4.67135800     0.82718299     0.71162068     0.78796705    -0.60484659
O       3.68699402     0.90000900     0.92922297     0.68097852    -0.09343521    -0.50715414
O       0.05629700     4.86183498     0.73636099    -0.37553495    -0.95926120     0.44053889
O       0.03336600     1.00290699     0.69646002    -0.41911722     0.23148602     0.84637765
O       5.93599722     4.79490623     4.13932780    -0.47587975     0.17149830    -1.77085670
O       5.71705723     1.04472924     4.12075479    -0.29822777    -0.51651245    -1.29731434
O       1.70897221     4.67423524     4.10158883     0.72595073     0.17298466     0.34708491
O       1.87350824     0.84667021     4.04248683     0.52646365     0.85851583     0.50138921
O       3.77365325     2.94344823     3.23902283     0.09409495    -0.22225421     0.13839636
O       3.80372724    -1.10333578     3.22578980     0.44334062    -0.09520541     0.31558889
O       0.01707724     2.78371925     3.14498782    -0.48998071    -0.10933157     0.51314070
O       0.03949721    -0.97029179     3.18145580    -0.82684034     0.28667040     0.46723261
O       5.74384900     6.63336198     1.66681901    -0.88962594     0.13114045    -0.79061503
O       5.67714700     3.01491298     1.66992899     0.08841333    -0.22938671    -0.66168033
O       1.88375300     6.66547103     1.72187901     0.73359848    -0.10319024    -0.62063008
O       1.86063198     2.94864200     1.59655301     0.34424307    -0.46688988     0.61760081
