# total energy = -19517.82490175 eV

CRYSTAL
PRIMVEC
        7.60600008     0.00000000     0.00000000
        0.00000000     7.60600008     0.00000000
       -1.89786986    -1.89786986     4.85670466
PRIMCOORD
23 1
Ti      3.88292200     6.52427098     1.27358798    -1.06237919    -0.08353234    -0.46829628
Ti      3.83081497     2.78263100     1.13869699     0.30409348     0.64767681     0.55988517
Ti      0.01747301     6.66988802     1.35561199     1.48533507    -0.40510291    -1.27043988
Ti      0.02734899     2.84527701     1.08659500    -0.99613032     0.64886389    -0.11919382
Ti      5.50608722     2.94870920     3.66124981     0.38521542     0.17640988    -1.26771579
Ti      5.70670525    -0.97644675     3.64006081     0.57925279     0.04776906     0.80247630
Ti      1.85310121     2.83444523     3.51281379     0.63011771     0.52493153     1.51239183
Ti      1.91033924    -1.02816880     3.69912779    -0.15953624    -0.00125676    -0.22109721
O       3.63693702     4.73772201     0.66028102     0.32081414     0.16728555     0.54976197
O       4.00581902     0.82164097     0.96528000    -0.36474609     0.75656307    -1.12023392
O       0.12736201     4.73290798     0.58647598     0.22635923     1.60980711     2.93393344
O       0.08708199     0.83531603     0.77907300    -0.47456437     1.62572919     0.55347567
O       5.80367222     4.81175021     4.07056180     0.10366435    -0.54403278    -0.42222132
O       5.59041024     1.03392424     4.10710482     0.18167987    -1.62859880    -1.95592812
O       1.50492025     4.69070324     4.05040480     0.73781869     0.58203267    -0.28919393
O       2.06313123     0.91687822     4.11369784    -0.66231796    -0.09460172    -0.78982904
O       3.73791621     3.12974222     3.34433180    -1.10358165    -0.63252504    -1.30162789
O       3.89610724    -0.81689378     3.22660679    -0.57852568    -1.05120569     0.08788445
O       0.03156421    -0.71030975     3.33632079    -0.05127476    -0.22604710    -0.48438419
O       5.82278700     6.41521998     1.62851298    -1.12092555    -0.00857438     0.19949557
O       5.64390101     3.09748199     1.54567002     1.37004754    -0.73325935     1.02200437
O       1.95584398     6.62682098     1.79812202    -0.14952127    -0.39522164    -0.15383404
O       1.84318098     2.97708501     1.41860599     0.39910478    -0.98311000     1.64268690
