# total energy = -4904.37620457 eV

CRYSTAL
PRIMVEC
        5.45941947     0.00000000     0.00000000
       -0.00000708     2.07081399     0.00000000
       -2.72974247    -1.03550529     6.02523674
PRIMCOORD
6 1
Ti     -0.00023327     1.55316910     1.50630892    -0.04807142    -0.03550309    87.85748462
Ti      2.72990324    -0.51786066     4.51892734     0.04807142     0.03550309   -87.85748462
O       0.00005796     0.51768702     0.98146175     0.04685323     0.03678324   -82.01212955
O       2.72961186     0.51762137     5.04377457    -0.04685323    -0.03678324    82.01212955
O      -0.00002367    -0.51774406     3.99408012    -0.00108886    -0.00012521    -0.48562732
O       2.72969338     1.55305239     2.03115620     0.00108886     0.00012521     0.48562732
