# total energy = -4989.25735230 eV

CRYSTAL
PRIMVEC
        4.02358930     0.00000000     0.00000000
        0.60015365     3.97857844     0.00000000
       -2.31190773    -1.98932042     5.14958087
PRIMCOORD
6 1
Ti      0.44996892     2.98408591     1.28739494    -0.00012367     0.00012367     0.00000000
Ti      1.86186672    -0.99482752     3.86218538     0.00012367    -0.00012367     0.00000000
O       0.15008073     0.99463866     0.83882451    -0.00053325    -0.00121716    -0.83566874
O       2.16175472     0.99461957     4.31075581     0.00053325     0.00121716     0.83566874
O      -0.15005611    -0.99461748     3.41361495    -0.00121716    -0.00053325    -0.83566874
O       2.46189151     2.98387571     1.73596537     0.00121716     0.00053325     0.83566874
