# total energy = -39040.38830323 eV

CRYSTAL
PRIMVEC
        7.60629642    -0.00000847    -0.00005503
       -0.00000847     7.60629642    -0.00005503
       -3.80314186    -3.80314186     9.70738094
PRIMCOORD
46 1
Ti      1.90150435     4.70880711     6.07842467     0.00015170     0.01957124    -0.03438697
Ti      3.83607685     6.66337090     1.18623404     0.00624161    -0.01724594     0.01102747
Ti      1.90155088     0.98445705     5.93123405    -0.00015452    -0.04730806    -0.00173190
Ti      3.79589954     2.84589369     1.24499634    -0.00129198     0.00616602    -0.00098550
Ti     -1.90163480     4.77396773     6.06549376    -0.00017175     0.05741301     0.00532964
Ti     -0.03300921     6.66333972     1.18631412    -0.00640899    -0.01728990     0.01087423
Ti     -1.90176254     0.94391985     6.13092772     0.00018615     0.00904077    -0.04439680
Ti      0.00694632     2.84583627     1.24508790     0.00143853     0.00622696    -0.00111329
Ti      3.88481201     0.94186384     8.54622732     0.01607583     0.01862585    -0.00745723
Ti      5.70490424     2.83806606     3.65725466    -0.00022549    -0.03174259     0.02879817
Ti      3.78824660    -2.83808611     8.48907964    -0.02436558    -0.00095928     0.01217932
Ti      5.70470990    -0.93584365     3.64794361     0.00013807     0.00585723    -0.02212409
Ti     -0.08173681     0.94192364     8.54615128    -0.01549682     0.01873718    -0.00737161
Ti      1.90175503     2.91963002     3.68973157    -0.00041755    -0.02580257    -0.02687292
Ti      0.01524743    -2.83802269     8.48910499     0.02423163    -0.00100247     0.01186282
Ti      1.90154397    -0.96930728     3.47393402     0.00004422    -0.04259394     0.00535587
O       1.90165775     2.85239105     5.65486909    -0.00002957     0.01758507    -0.02823201
O       3.84174108     4.74856870     0.80672507     0.02195723     0.00796477    -0.00730476
O       3.78101745     0.95320351     0.76403051    -0.02276147    -0.00603155     0.00884280
O      -1.90153748     2.83104482     5.72265470     0.00001311    -0.03466620     0.03574863
O      -0.03867995     4.74853815     0.80681200    -0.02199914     0.00795962    -0.00743126
O      -1.90157379    -0.93672608     5.66204774     0.00008099     0.01926991     0.03352668
O       0.02220803     0.95317507     0.76410150     0.02266120    -0.00599839     0.00877055
O       3.65721900     2.82658765     8.86046626     0.00295034    -0.00221655    -0.01663659
O       5.70471727     4.74891862     4.09300215    -0.00001337     0.01152163    -0.00223403
O       3.69850575    -0.93020814     8.91971894     0.01039652     0.00291872    -0.05262227
O       5.70470434     0.95359712     4.09863952    -0.00004654    -0.01428043    -0.01345973
O       0.14596704     2.82661235     8.86043870    -0.00282179    -0.00233868    -0.01644067
O       1.90144070     4.83688112     4.06993253     0.00006968     0.00947015     0.02511969
O       0.10469338    -0.93015455     8.91972112    -0.01027465     0.00297580    -0.05249449
O       1.90149555     0.85841858     4.04789088     0.00006916     0.05249295     0.00076953
O       3.78742911     2.85216228     3.25523952    -0.00973523     0.00317300     0.02754989
O       1.90163433    -2.81237757     8.06521742    -0.00002905     0.00767192    -0.01024276
O       3.81964181    -0.95403339     3.17655226    -0.01046928     0.00723174     0.02614659
O      -1.90160058     0.98752017     8.10850616     0.00012984     0.01693329     0.00598527
O       0.01570940     2.85211249     3.25526314     0.00963367     0.00313469     0.02751647
O      -1.90153081    -2.87904614     8.08618269    -0.00010336     0.00158071    -0.01785349
O      -0.01654398    -0.95401286     3.17659816     0.01048676     0.00718932     0.02615738
O       3.78581602     4.87350530     6.46892464    -0.00819000    -0.02293862    -0.03912578
O       5.70469277     6.68543897     1.62084689    -0.00003137     0.02425940     0.02367216
O       3.67271560     0.79704839     6.53745459    -0.02604091    -0.02204850     0.02646052
O       5.70469072     2.82126008     1.68961499     0.00011184    -0.02606945     0.00757087
O       0.01735726     4.87351463     6.46896364     0.00823705    -0.02291934    -0.03918286
O       1.90156485     6.63034133     1.52707199    -0.00000309     0.01086266     0.02387579
O       0.13053697     0.79701760     6.53759790     0.02581286    -0.02204388     0.02652737
O       1.90156264     2.87434300     1.62589522    -0.00003625     0.00966272     0.03003358
