# total energy = -39027.00524488 eV

CRYSTAL
PRIMVEC
        7.60600008     0.00000000     0.00000000
        0.00000000     7.60600008     0.00000000
       -3.79573973    -3.79573973     9.71340985
PRIMCOORD
46 1
Ti      1.85197543     4.34928348     6.19223564     0.68105643    -2.94994396    -0.35405029
Ti      3.90002702    -0.18044600     1.41107902    -1.18853067    -0.04912891    -0.50295964
Ti      1.89272446     0.11585045     6.27141162    -1.73376415     3.38809584    -0.40499955
Ti      3.78144702     3.09226901     1.30403499     0.44136087    -1.02508815    -1.76632744
Ti     -2.12368456     4.29555346     6.09456164     0.91251210    -1.12982208    -1.27954416
Ti      0.06096201    -0.37185502     1.10716099     1.31753659    -0.58003955     0.13601552
Ti     -2.17314353     0.31335845     6.02862060     5.36680754    -0.04853859    -0.54686947
Ti      0.21705999     3.48204801     1.32697302    -2.04349041    -0.40517001    -1.45734115
Ti      3.88176945     1.25512546     8.31619564    -1.22090987     1.08718906     2.62632398
Ti      5.87160101     2.48932900     3.63277399     1.11404193    -0.87820843     0.38738106
Ti      3.59751046    -2.41685357     8.41692564     0.50990574     0.41131675     2.50658843
Ti      5.74394901     6.20835602     3.44462300     0.58563761     0.45934138     1.32022263
Ti     -0.11486253     1.64104644     8.21334962    -0.38664135    -3.52338143    -0.49687615
Ti      1.90726398     2.26746599     3.53068897    -0.54439196     0.62345264     3.24975322
Ti     -0.27333555    -2.18304957     8.10790962     3.57996140     2.62913059     3.21108073
Ti      1.94970500    -1.20419199     3.51627397    -0.53463076     0.94511833     0.17455894
O       1.94536844    -1.57378552     5.62164260    -0.10152467     0.74062968    -1.44925760
O       3.64235601     1.39508099     0.31041998     0.13340945     0.88504423     0.88425670
O      -1.28605153     2.58932445     5.43132162    -2.80844351     1.26346756     1.03976762
O       0.04459001     5.36821401     0.61209001    -0.18533161    -3.41177983    -0.04437134
O       5.37189745    -1.54928356     5.44996263     0.11974892    -0.11298743     1.28056746
O       0.22261201     1.38065901     1.03936201     0.37938287     2.29595921    -1.23997512
O       3.63185147     3.44650243     8.88215362    -0.24954262    -1.32144364     1.56851081
O       5.97179098     4.39766599     3.79334600    -1.15091311     0.80162681     0.56132602
O      -3.45727955    -0.47640854     8.98808861    -0.05083587    -0.52365678    -0.16483143
O       5.73982100     0.39736200     4.30698703    -0.13387688     1.65710668    -2.25150559
O       0.24793743     2.81960244     9.48359463     0.69856487     0.85249816     1.46913378
O       2.04161245     2.65528645     5.39292960    -0.10404127     1.22958426    -0.28891703
O      -0.44702153     0.05750045     9.15973164     0.83308761    -0.76416428     1.21841873
O       1.94442799     0.51614398     4.33024299    -0.45948587    -0.98873377     0.39181698
O       1.87252947     0.87598245     8.08069361     0.66085140     0.77911731    -1.21272708
O       3.49692403     1.76511601     2.85407897     3.64272180     0.00502728    -1.85055681
O       1.83730145    -2.26699756     8.16185565    -0.48567745     1.06254966    -0.11242178
O       3.78955201     6.23282798     3.15044300     1.94309548    -0.18638397    -1.19306970
O      -1.99959953     1.88641344     8.01680562    -0.50369549    -0.49564254    -0.95205414
O       0.15080001     2.65941398     3.39879700    -1.00312450    -0.04948167    -1.42768758
O      -1.91195154    -2.56229556     7.87672161    -3.09166220    -0.07240486     0.08434096
O       0.24838400    -0.99780101     3.01091499    -1.73912979    -1.72984168     1.56605540
O       3.61715146     4.30839945     6.81984563     1.88526029    -0.37489089    -3.41365468
O       5.96411802    -0.39242600     1.86948898    -3.84706133     0.16940542    -0.96255839
O       3.77586447     0.73834646     6.26218261    -2.52134142     0.28719773     1.76808891
O       5.91880500     2.97690001     1.78281001    -2.23072721     0.59808561    -1.47694530
O       0.14346646     4.23030845     6.84512162    -1.60829247    -1.14879709    -1.10452319
O       1.99218603     6.97760501     1.55763202     2.24377196     0.47468161     0.23941942
O      -0.22878957     0.62814842     6.51044564     1.25558764    -1.44863873     0.10030700
O       1.94707298     3.48387298     1.86668302     1.62276393     0.57254272     0.17009011
