# total energy = -4984.81657735 eV

CRYSTAL
PRIMVEC
        4.15540500     0.00000000     0.00000000
        1.95547750     3.66653766     0.00000000
       -3.05548029    -1.83329226     5.48787498
PRIMCOORD
6 1
Ti      1.46651008     2.75004445     1.37196838     0.00044660    -0.00044660     0.00000000
Ti      1.58889197    -0.91679918     4.11590593    -0.00044660     0.00044660     0.00000000
O       0.48891244     0.91662975     0.89392988    -0.00051962    -0.00061706    -2.26343063
O       2.56648944     0.91661551     4.59394449     0.00051962     0.00061706     2.26343063
O      -0.48887294    -0.91660600     3.63786737    -0.00061706    -0.00051962    -2.26343063
O       3.54427474     2.74985116     1.85000694     0.00061706     0.00051962     2.26343063
