# total energy = -39035.85593595 eV

CRYSTAL
PRIMVEC
        5.93200024     0.00000000     0.00000000
        0.00000000     9.29399984     0.00000000
        0.00000000     0.00000000     9.29399984
PRIMCOORD
46 1
Ti      4.47656801     6.99557301     7.02860600    -0.82666242    -0.15508823    -0.44185890
Ti      4.49506001     6.97881598     2.41867400    -0.23767518    -0.26697265    -0.75255626
Ti      4.53498802     2.24249200     6.97578501    -0.56188755     0.71926869    -0.35746369
Ti      4.12333500     2.57724900     2.19411398     1.37215224    -0.72433942     0.06658054
Ti      1.45061597     6.97364200     6.95618000     1.70127465    -0.21212766     0.27696808
Ti      1.51981998     6.93295801     2.29607802     0.18624384     0.05684788    -0.09736026
Ti      1.52972803     2.31116402     6.94797902     0.63749524     0.66155666    -0.38496216
Ti      1.20854098     2.06373502     2.50195200     0.57440986     1.37420861    -0.23953203
Ti      2.97251101     4.65049402     4.63264101    -0.33636727     0.04939862     1.14007719
Ti      3.03973298     4.78307002     9.13314800    -0.21535619     0.66967518     0.52347191
Ti      2.98339201     0.00385998     4.66093501     0.26860273    -0.51329085    -0.31685901
Ti      3.00599899     9.26298698     0.01658198    -0.72595330    -0.57777260    -0.62137056
Ti      5.92830198     4.63841201     4.58525102     0.62867455    -0.07604503     1.19613497
Ti      0.07515899     4.63862500     9.21947898     0.05138300    -0.14186273     1.03278090
Ti      0.04280499     9.13738999     4.77123597    -0.33963591     0.22334564    -0.78125004
Ti      0.00442202     0.10965198     0.11087999     0.29944184    -0.86262214    -0.79757115
O       4.32233698     5.52536298     5.57090498     1.40004281     0.11761490     0.11772931
O       4.43538601     5.64369701     1.09887403    -0.54841676    -1.82807637    -2.12818489
O       4.51709601     0.85673500     5.66557902    -0.06051942    -0.40486020    -1.44547473
O       4.39060597     1.12850901     0.68800102    -0.15060859    -0.26679525     0.80372843
O       1.43512902     5.58660202     5.54227601     0.04362007    -0.27776203     0.02196571
O       1.55957299     5.57165398     0.84844301    -0.22034311    -0.31173429     0.59362089
O       1.51011000     0.91684298     5.49957300    -0.20920766     0.17179526    -0.44487403
O       1.46033400     1.03367002     0.83087099     0.27633944    -0.03300758     1.07365811
O       4.52065298     8.20134201     8.46949199    -0.86243420     1.61877306     0.21907170
O       4.49006098     8.32411499     3.75819497     0.63696662     1.17575640     0.84011753
O       4.45916999     3.75218701     8.38753498     0.13066711     0.13087717     0.67262603
O       4.48051102     3.82194898     3.71307399    -1.37911891    -1.43573745    -1.16506241
O       1.45113499     8.58319700     8.27078800     0.65926015    -1.09711918     0.72229848
O       1.52299001     8.33494900     3.73730602    -0.77409157     0.96752653     0.36805792
O       1.52830200     3.88368200     8.24384198    -0.11347979    -0.89078550     0.95179060
O       1.48854502     3.53255200     3.81478000    -0.37224343     0.01121850    -0.65903723
O       2.94289000     6.13640803     7.90320799     0.57080080    -0.13126104     0.01114265
O       2.89856601     6.09938102     3.32627997     0.08891238    -0.07255784    -0.76276226
O       2.97883902     1.40149398     7.82312400    -0.08819324     0.05335710     0.10663474
O       3.01552302     1.25734700     3.05914098    -0.08486212     1.26056298     0.16160469
O       0.05102099     6.06801700     7.96428399    -0.02496439     0.15363427    -0.50192195
O       0.03964300     5.92441300     3.17567698     0.17195827     1.09835819    -0.00582509
O       0.05315300     1.35110700     7.83162200    -0.14346684     1.00981168    -0.18990072
O       3.08937700     7.80986303     5.97773899    -0.56460546     0.69646017     0.33776415
O       2.94608300     7.98162200     1.54780599     0.06148641     0.15107345    -1.11475078
O       3.00180701     3.26999599     6.07832601    -0.15355971    -0.71602499    -0.01228088
O       0.14542299     7.84874602     6.01109102    -1.75405479    -0.17652430     0.49363142
O       5.89055100     7.94184899     1.40874001     0.47761370    -0.10750481     0.67195960
O       0.00381500     3.25530497     6.02544400    -0.13207479    -0.66320911     0.63585153
O       5.84369199     3.18801898     1.51160201     0.64243639    -0.42803947     0.18159220
