# total energy = -19888.23821480 eV

CRYSTAL
PRIMVEC
        8.88935493     0.00000000     0.00000000
        0.00002764     3.15365394     0.00000000
        0.00000000     0.00000000    14.14221393
PRIMCOORD
24 1
Ti      3.22197978     1.86885230     5.24666062     0.09165858     0.16698498     2.00626956
Ti      5.66740242     1.28480134     8.89555373    -0.09165858    -0.16698498    -2.00626956
Ti      7.66650561     1.28480236     1.82439005     0.09785879    -0.16822580    -2.00588518
Ti      1.22287665     1.86885140    12.31782442    -0.09785879     0.16822580     2.00588518
Ti      3.22196632     0.29202539     1.82444677     0.09159507     0.16739533    -2.00596412
Ti      5.66741594     2.86162837    12.31776770    -0.09159507    -0.16739533     2.00596412
Ti      1.22286314     0.29202431     8.89549702    -0.09780506     0.16836078    -2.00590627
Ti      7.66651912     2.86162945     5.24671733     0.09780506    -0.16836078     2.00590627
O       2.81354655     1.11045507     7.21666368     1.88732566     0.37298082    -1.55679789
O       6.07583571     2.04319863     6.92555066    -1.88732566    -0.37298082     1.55679789
O       1.63120207     1.11046787     0.14560204    -1.88938332     0.37299907    -1.55506830
O       7.25818025     2.04318583    13.99661188     1.88938332    -0.37299907     1.55506830
O       6.07582219     0.46637160     0.14555612    -1.88902053    -0.37245297    -1.55535704
O       2.81356007     2.68728204    13.99665781     1.88902053     0.37245297     1.55535704
O       7.25816673     0.46635886     7.21670955     1.88685258    -0.37263398    -1.55651609
O       1.63121541     2.68729484     6.92550480    -1.88685258     0.37263398     1.55651609
O       0.32298742     1.91823109     3.82016487    -1.23676099     0.47738410     1.44850427
O       8.56639484     1.23542254    10.32204942     1.23676099    -0.47738410    -1.44850427
O       4.76767664     1.23539331     3.25098724    -1.23857747    -0.47708380    -1.44756736
O       4.12170563     1.91826039    10.89122687     1.23857747     0.47708380     1.44756736
O       0.32297390     0.34140412     3.25094210    -1.23694379     0.47742138    -1.44725188
O       8.56640836     2.81224958    10.89127201     1.23694379    -0.47742138     1.44725188
O       4.12169217     0.34143336    10.32209450     1.23856564     0.47740981    -1.44889739
O       4.76769009     2.81222028     3.82011973    -1.23856564    -0.47740981     1.44889739
