# total energy = -4989.90777582 eV

CRYSTAL
PRIMVEC
        3.65102228     0.00000000     0.00000000
       -0.00000813     3.65102228     0.00000000
       -1.82553977    -1.82554384     4.65951643
PRIMCOORD
6 1
Ti     -0.00016078     2.73840500     1.16487898     0.00240887    -0.00211242    -0.00170824
Ti      1.82563506    -0.91292665     3.49463715    -0.00240887     0.00211242     0.00170824
O       0.00003647     0.91274937     0.75899710     0.00004165     0.00101764     0.76818189
O       1.82543771     0.91272887     3.90051908    -0.00004165    -0.00101764    -0.76818189
O      -0.00002062    -0.91273352     3.08875527     0.00104078     0.00017818     0.76746249
O       1.82549475     2.73821171     1.57076091    -0.00104078    -0.00017818    -0.76746249
