# total energy = -19937.30159179 eV

CRYSTAL
PRIMVEC
        5.80914183     0.00000000     0.00000000
        2.64817133     5.58683834     0.00000000
        0.00000000     0.00000000    10.68438468
PRIMCOORD
24 1
Ti      3.67483833     3.31075520     3.96383049     1.07409443    -3.20347797     0.86529841
Ti      4.78247464     2.27608307     6.72055425    -1.07409443     3.20347797    -0.86529841
Ti      6.08887782     2.27608496     1.37831921    -2.62134118    -0.75007257     0.78759090
Ti      2.36843526     3.31075352     9.30606571     2.62134118     0.75007257    -0.78759090
Ti      2.35075280     0.51733611     1.37836203     1.07409443    -3.20347797    -0.86529841
Ti      6.10656021     5.06950233     9.30602288    -1.07409443     3.20347797     0.86529841
Ti      1.04434959     0.51733405     6.72051143     2.62134118     0.75007257     0.78759090
Ti      7.41296348     5.06950437     3.96387337    -2.62134118    -0.75007257    -0.78759090
O       2.77109615     1.96722073     5.45215972     1.51328066     2.02757039    -1.08377129
O       5.68621682     3.61961754     5.23222507    -1.51328066    -2.02757039     1.08377129
O       1.99845162     1.96724330     0.11000175     0.50277350    -1.05696265     1.29578042
O       6.45886144     3.61959507    10.57438276    -0.50277350     1.05696265    -1.29578042
O       4.36213127     0.82619834     0.10996704    -1.51328066    -2.02757039    -1.08377129
O       4.09518172     4.76063998    10.57441741     1.51328066     2.02757039     1.08377129
O       5.13477587     0.82617582     5.45219438    -0.50277350     1.05696265     1.29578042
O       3.32253706     4.76066252     5.23219036     0.50277350    -1.05696265    -1.29578042
O       1.82182744     3.39823182     2.88611886     0.62604868     2.17757735     2.05223011
O       6.63548548     2.18860647     7.79826593    -0.62604868    -2.17757735    -2.05223011
O       4.15302064     2.18855447     2.45610749     1.19625915     1.38836974     0.73536843
O       4.30429234     3.39828380     8.22827707    -1.19625915    -1.38836974    -0.73536843
O       0.49774187     0.60481256     2.45607336     0.62604868     2.17757735    -2.05223011
O       7.95957105     4.98202572     8.22831120    -0.62604868    -2.17757735     2.05223011
O       2.98020677     0.60486454     7.79829995    -1.19625915    -1.38836974     0.73536843
O       5.47710620     4.98197373     2.88608473     1.19625915     1.38836974    -0.73536843
