# total energy = -4989.25038033 eV

CRYSTAL
PRIMVEC
        3.62313728     0.00000000     0.00000000
        0.54042271     3.58260618     0.00000000
       -2.08181265    -1.79133118     4.63706335
PRIMCOORD
6 1
Ti      0.40518528     2.68709157     1.15926559     0.00187896    -0.00169796    -0.00117140
Ti      1.67656245    -0.89581625     3.47779726    -0.00187896     0.00169796     0.00117140
O       0.13514379     0.89564619     0.75533961     0.00012290     0.00091557     0.64725104
O       1.94660378     0.89562900     3.88172324    -0.00012290    -0.00091557    -0.64725104
O      -0.13512162    -0.89562711     3.07387128     0.00094360     0.00004165     0.64683297
O       2.21686913     2.68690230     1.56319156    -0.00094360    -0.00004165    -0.64683297
