# total energy = -4989.54769082 eV

CRYSTAL
PRIMVEC
        2.86655071     0.00000000     0.00000000
        0.44802516     4.46905396     0.00000000
       -0.00000298    -0.00005828     4.49709400
PRIMCOORD
6 1
Ti      1.65728649     2.23449784     2.24854700     0.00000000     0.00000000     0.00000000
Ti      0.00000000     0.00000000     0.00000000     0.00000000     0.00000000     0.00000000
O       1.52058828     0.87094147     0.87641738    -1.01493821     0.59199158     0.59902612
O       1.79398476     3.59805420     3.62067658     1.01493821    -0.59199158    -0.59902612
O       0.13669699     1.36353274     3.12496529     1.01484822    -0.59200855     0.59908628
O       0.31132538     3.10546283     1.37212866    -1.01484822     0.59200855    -0.59908628
