# total energy = -4979.70168524 eV

CRYSTAL
PRIMVEC
        4.51697210     0.00000000     0.00000000
        0.00000000     2.68453810     0.00000000
        0.00000000    -0.00010717     6.12034900
PRIMCOORD
6 1
Ti      2.25848605     1.34221530     3.06017422     0.00000000     0.00000000     0.00000000
Ti      0.00000000     0.00000000     0.00000000     0.00000000     0.00000000     0.00000000
O       2.25848605     0.52315599     1.19276578     0.00000000    -0.07396527     2.49092963
O       2.25848605     2.16127461     4.92758266     0.00000000     0.07396527    -2.49092963
O       0.00000000     0.81901692     4.25294135     0.00000000     0.07367730     2.49584713
O       0.00000000     1.86541368     1.86740709     0.00000000    -0.07367730    -2.49584713
