# total energy = -19959.74468815 eV

CRYSTAL
PRIMVEC
        5.93400000     0.00000000     0.00000000
        0.00000000     9.29699974     0.00000000
        0.00000000     0.00000000     4.64899994
PRIMCOORD
24 1
Ti      4.46781600     6.85372599     2.29930500    -1.01071311     1.43648024     0.40819877
Ti      4.42643302     2.31784901     2.34182100     0.27673822    -0.37741160     1.08325836
Ti      1.47801503     7.01560401     2.36146999     1.61761427     0.74729475    -0.09548232
Ti      1.44088901     2.41525498     2.31274499    -0.07012635    -1.57864584     0.54429914
Ti      2.95991199     4.67673000     0.04652098    -0.15240065    -0.46185437    -0.46708657
Ti      3.02237898     0.01066599     4.62099398    -0.72521360    -1.27389827    -0.61769594
Ti      0.03048299     4.65813799     0.01294801    -0.31901386    -0.22659938     0.00637942
Ti      5.92620501     9.24487700     0.11267798     0.48618576     0.15994762    -1.34833353
O       4.31413298     5.60752801     0.80511699     1.38342422    -0.53527148     0.32531512
O       4.39744802     0.88129798     0.72855600     1.16651791     0.94394257     1.41471919
O       1.52539502     5.60638499     0.92233102    -0.52267976    -0.07615482    -0.23770835
O       1.44972098     0.93993299     1.00195601     0.11713102    -0.71649627    -1.29157667
O       4.48174898     8.32492701     3.54793798    -0.01682351     1.20538477     1.91489792
O       4.49382602     3.66047298     3.61081900    -0.46582802     0.95592854     1.50321685
O       1.43879802     8.33858100     3.71679500    -0.32264348     0.11614294    -0.10533479
O       1.40868000     3.71331201     3.89140900     0.77283687    -0.36636177    -1.21359380
O       3.00904202     6.22747001     3.24853600    -1.83341655    -1.55848324     0.13331072
O       3.02918399     1.37933199     3.28099902    -0.37279056     1.04439560    -1.38375101
O       5.80297402     5.87067199     3.25570001     1.44459002     1.61261887    -1.30841766
O       5.90962499     1.39344001     3.12107800     0.59393225     0.33494030     0.13996654
O       3.04888701     7.86758198     1.32570802    -1.61461842    -0.15643677     0.42017138
O       3.07906403     3.28853302     1.34169002    -0.79510546    -0.49882865     0.49821699
O       5.80642399     7.89841301     1.37486600     1.55355932    -0.67621349     0.21684692
O       0.14969303     3.36574300     1.50892199    -1.19115680    -0.05442025    -0.53981668
