# total energy = -4988.83824687 eV

CRYSTAL
PRIMVEC
        4.27283679     0.00000000     0.00000000
       -0.00000863     3.86590038     0.00000000
       -2.13644854    -1.93298900     5.20643561
PRIMCOORD
6 1
Ti     -0.00018678     2.89957055     1.30160865    -0.00161362    -0.00029105     1.54455866
Ti      2.13656606    -0.96665905     3.90482634     0.00161362     0.00029105    -1.54455866
O       0.00004341     0.96646782     0.84808573    -0.00016892    -0.00079653    -0.58800945
O       2.13633570     0.96644357     4.35834938     0.00016892     0.00079653     0.58800945
O      -0.00002191    -0.96645430     3.45130342    -0.00188462    -0.00032422    -1.18949638
O       2.13640102     2.89936563     1.75513168     0.00188462     0.00032422     1.18949638
