# total energy = -19937.79608191 eV

CRYSTAL
PRIMVEC
        5.85886617     0.00000000     0.00000000
        2.39833721     5.75593179     0.00000000
        0.00000000     0.00000000    10.71087458
PRIMCOORD
24 1
Ti      3.54480965     3.41095995     3.97365807     0.67546710    -2.85943107     0.88980514
Ti      4.71239382     2.34497199     6.73721662    -0.67546710     2.85943107    -0.88980514
Ti      6.02997930     2.34497395     1.38173645    -1.80184673    -0.84060166     0.55866441
Ti      2.22722422     3.41095823     9.32913830     1.80184673     0.84060166    -0.55866441
Ti      2.34564116     0.53299404     1.38177939     0.67546710    -2.85943107    -0.88980514
Ti      5.91156235     5.22293808     9.32909536    -0.67546710     2.85943107     0.88980514
Ti      1.02805559     0.53299192     6.73717363     1.80184673     0.84060166     0.55866441
Ti      7.22914791     5.22294020     3.97370101    -1.80184673    -0.84060166    -0.55866441
O       2.69886342     2.02676149     5.46567733     1.61323619     2.07359058    -0.96640116
O       5.55833999     3.72917047     5.24519737    -1.61323619    -2.07359058     0.96640116
O       1.91960422     2.02678475     0.11027446     0.10861398    -0.82872239     1.32869364
O       6.33759933     3.72914730    10.60059988    -0.10861398     0.82872239    -1.32869364
O       4.35917148     0.85120444     0.11023969    -1.61323619    -2.07359058    -0.96640116
O       3.89803199     4.90472751    10.60063465     1.61323619     2.07359058     0.96640116
O       5.13843075     0.85118123     5.46571204    -0.10861398     0.82872239     1.32869364
O       3.11877261     4.90475080     5.24516259     0.10861398    -0.82872239    -1.32869364
O       1.67167083     3.50108417     2.89327446     0.57216862     2.15052805     2.02489824
O       6.58553259     2.25484779     7.81760024    -0.57216862    -2.15052805    -2.02489824
O       4.08182111     2.25479423     2.46219696     1.10459878     1.51110705     0.77795080
O       4.17538231     3.50113773     8.24867756    -1.10459878    -1.51110705    -0.77795080
O       0.47250231     0.62311808     2.46216272     0.57216862     2.15052805    -2.02489824
O       7.78470117     5.13281387     8.24871174    -0.57216862    -2.15052805     2.02489824
O       2.97621379     0.62317170     7.81763437    -1.10459878    -1.51110705     0.77795080
O       5.28098962     5.13276026     2.89324027     1.10459878     1.51110705    -0.77795080
