# total energy = -19959.30081436 eV

CRYSTAL
PRIMVEC
        7.60600008     0.00000000     0.00000000
        0.00000000     7.60600008     0.00000000
       -1.89786986    -1.89786986     4.85670466
PRIMCOORD
24 1
Ti      3.70153898     6.59133800     1.29100098     2.70269142    -0.60003811    -0.17266995
Ti      3.71516800     2.86655703     1.18148299     0.86951553     0.39889523     0.12895141
Ti      0.10104798     6.63867301     1.26589501    -2.09387428     0.38837093    -0.53920578
Ti     -0.00094500     2.93976600     1.15184700    -0.91458236    -0.52979606    -0.71209634
Ti      5.72344720     2.84177825     3.63968779    -1.94674079     1.38608840     0.00532270
Ti      5.87322225    -0.88304676     3.68151079    -0.13574478    -1.72908449    -1.24010702
Ti      1.72595023     2.87617324     3.55218283     1.72615548     0.29934774     1.42845505
Ti      2.01622824    -0.97507380     3.69151584    -0.50123135     0.01448174     1.28206101
O       3.69735600     4.72201101     0.85670399     0.50764934     0.55911256    -0.87861852
O       3.55729601     0.95357698     0.72180301     0.44025684    -0.37184645     1.38584800
O      -0.03560299     4.81000900     0.66202498    -0.71877632    -1.93929950     0.60468126
O       0.09109998     0.93634898     0.70538502     0.07930879     0.55752490     1.62302773
O      -1.54882180     4.65290924     4.21298181    -0.41952834     0.66565294    -1.96305496
O       5.98103523     0.92971320     3.98246183    -0.86225190     0.83659254     0.50739840
O       1.68211022     4.68656825     4.29745183     0.51250590    -0.14460995    -2.49514676
O       1.65527824     0.92074725     4.06958181     0.71933451     0.71907020    -1.05654896
O       3.70742523     2.79045022     3.19828581     0.47787415    -0.22538941    -0.37535600
O       3.92070224    -1.12550577     3.42163883    -1.29938331     0.59194042    -0.66764940
O      -0.12365380     2.67646322     3.08396680     0.93109707     0.44289428    -0.88177970
O       0.12221920    -1.01299078     3.26389781    -0.52459446    -0.01706442    -0.72806727
O       5.75590498     6.48704600     1.63814099     0.13471531     0.90475714     0.53218538
O       5.58821701     2.94049198     1.17996398     1.17808865    -0.38527687     1.68883668
O       1.93758599     6.44251500     1.66176600    -0.22684312     0.45225850     1.24520064
O       1.79145899     3.45405998     1.62793300    -0.63564250    -2.27458176     1.27833214
