# total energy = -19960.96731060 eV

CRYSTAL
PRIMVEC
        5.25995264     0.00000000     0.00000000
        0.55845070     5.57025624     0.00000000
        0.00000000     0.00000000     9.42597563
PRIMCOORD
24 1
Ti      2.23741727     3.30092872     3.49696981     0.43722037    -0.73056047     0.49798944
Ti      3.58098624     2.26932756     5.92900614    -0.43722037     0.73056047    -0.49798944
Ti      4.76388305     2.26932945     1.21598051    -0.58703141    -0.28297366     0.26272442
Ti      1.05452047     3.30092710     8.20999560     0.58703141     0.28297366    -0.26272442
Ti      1.95819203     0.51580065     1.21601832     0.43700157    -0.72946800    -0.48856120
Ti      3.86021149     5.05445585     8.20995779    -0.43700157     0.72946800     0.48856120
Ti      0.77529515     0.51579860     5.92896838     0.58723324     0.28212468     0.25476994
Ti      5.04310830     5.05445785     3.49700763    -0.58723324    -0.28212468    -0.25476994
O       1.86144827     1.96138193     4.81000334     0.40145425     0.55687827    -0.28616183
O       3.95695524     3.60887441     4.61597262    -0.40145425    -0.55687827     0.28616183
O       1.16184112     1.96140445     0.09704571    -0.08523056    -0.09274127     0.28677864
O       4.65656244     3.60885193     9.32893003     0.08523056     0.09274127    -0.28677864
O       3.67772999     0.82374612     0.09701515    -0.40239836    -0.55717472    -0.28621505
O       2.14067352     4.74651021     9.32896059     0.40239836     0.55717472     0.28621505
O       4.37733719     0.82372365     4.81003395     0.08416355     0.09304800     0.28641560
O       1.44106626     4.74653269     4.61594205    -0.08416355    -0.09304800    -0.28641560
O       0.53078760     3.38814573     2.54619124    -0.07726811     0.09771713     0.05151259
O       5.28761586     2.18211061     6.87978471     0.07726811    -0.09771713    -0.05151259
O       3.03985723     2.18205873     2.16682671     0.39727827     0.11348854    -0.17631372
O       2.77854628     3.38819755     7.25914913    -0.39727827    -0.11348854     0.17631372
O       0.25156235     0.60301745     2.16679658    -0.07799753     0.09723016    -0.05203298
O       5.56684110     4.96723884     7.25917921     0.07799753    -0.09723016     0.05203298
O       2.49932103     0.60306932     6.87981479    -0.39828768    -0.11279125    -0.17512022
O       3.31908248     4.96718702     2.54616116     0.39828768     0.11279125     0.17512022
