# total energy = -19075.01314334 eV

CRYSTAL
PRIMVEC
        7.60600008     0.00000000     0.00000000
        0.00000000     7.60600008     0.00000000
       -1.89786986    -1.89786986     4.85670466
PRIMCOORD
22 1
Ti      3.81613999     6.54394902     1.15662002     1.69230484     0.06292597    -0.76693799
Ti      3.78666900     2.86522498     1.11223300    -1.14094648    -0.21257400     1.11956286
Ti      0.26867700     6.71148701     1.05279502    -0.83758782    -0.63157013     0.42607386
Ti     -0.13493099     2.81503802     1.27638198     1.01179786     0.97338865    -0.22644871
Ti      5.63474524     2.80753323     3.59149382    -1.38323396     0.85841530     1.18459046
Ti      6.07084222    -0.73338479     3.61529283     0.26376417    -2.31430326    -0.79684481
Ti      1.76213421     2.79501824     3.58216183     1.52835016    -0.59643471    -0.56800292
Ti      1.55955224    -1.22781679     3.79824983    -0.43031978     2.42553591    -0.59744746
O       3.75403998     4.67959999     0.77738599     0.14112945     2.27983299    -0.03821972
O       4.03942501     1.04919598     0.66812702    -0.41961319    -1.71417388     0.87782020
O      -0.15120399     4.83525499     0.71219601     0.74152545     1.24060659    -0.05199852
O      -0.21475399     1.00968602     1.09369100     0.94381864    -0.94866440    -0.86364133
O      -1.46323876     4.99071721     4.06151482    -0.54078341    -0.11299591    -0.44921354
O       5.62175923     0.99285622     4.14936782     0.25177588    -0.16647256    -0.87423145
O       2.17419823     4.68383124     4.01974279    -0.89853610     0.03969990     0.88435569
O       1.54603420     1.02096220     4.03388680     0.37898409    -1.53932929    -0.38030255
O       3.72549923     2.79299721     3.22654282     1.33211012    -0.28207738    -0.21873694
O      -0.09502378     2.85765420     3.21135183    -0.13115871     0.37570927     0.26779515
O       5.63203702     6.58054501     1.76179199     0.33004029     0.60662322     1.38676383
O       5.65121398     3.00407897     1.60068900    -0.46530248     0.02225882     0.39331080
O       2.14330402     6.58766498     1.98322002    -1.23901147     0.42162482    -0.39123874
O       1.89502998     3.04242797     1.66327400    -1.12910706    -0.78802618    -0.31700737
