# total energy = -19959.04055967 eV

CRYSTAL
PRIMVEC
        7.60600008     0.00000000     0.00000000
        0.00000000     7.60600008     0.00000000
       -1.89786986    -1.89786986     4.85670466
PRIMCOORD
24 1
Ti      3.93280098     6.79811798     1.04348298    -2.87373233     0.91535035     1.93064799
Ti      3.83243500     2.97184203     1.23753699     0.84697723    -1.35762936    -0.28672953
Ti     -0.15364799     6.61888501     1.23942202     4.20649757    -1.17666040    -0.64642340
Ti      0.04762902     2.65358102     1.25581599    -1.21676911     1.89269695     0.56882362
Ti      5.57393420     2.74705224     3.72802282     1.60778956    -0.67914481     0.27003895
Ti      5.72376624    -1.02187477     3.69663780    -0.62084682     0.99658284    -0.25710038
Ti      1.92403525     2.92322524     3.60953279    -1.49311806    -0.46088918     0.17273783
Ti      1.90675724    -0.75781278     3.56700482     1.06672693    -0.94081405    -1.64591930
O       3.87204100     4.93235198     0.61725499     0.21922159    -2.42155173     2.61098271
O       3.96304901     1.08968502     0.54332602     0.12467952    -1.35886169     2.92397324
O      -0.12247098     4.58173300     0.83089798    -0.20103977     1.44944915     0.62693726
O      -0.24968599     0.92536898     0.78655599     0.39071321    -1.23924133    -0.14828380
O       5.66392725     4.71383924     4.12241482    -0.74160001    -0.39839413    -0.28868306
O       5.72297925     0.85732821     4.10807380     0.12101621    -0.76309573     0.32847783
O       2.12837424     4.82350424     4.07031679     0.07553570    -0.07458259    -3.06262492
O       1.88196020     0.95835820     4.23151280    -0.36530324     2.65126137    -1.61267852
O       3.75729723     2.40510520     3.21779583    -0.35003294     1.60162946    -0.26317462
O       3.73203325    -0.73187277     3.03066579     1.32248802    -0.68612253     0.57574734
O      -0.06379777     2.60963523     3.42992384     1.60624433     1.01430289    -1.24355821
O       0.03763720    -1.02118578     3.37341681    -1.15921700    -0.12782604    -1.43513632
O       5.75578501     6.82213803     1.69326401    -1.25733265    -0.61286509     0.38895277
O       5.72075501     2.69094400     1.80211402    -1.23808253     1.16874885    -0.84751536
O       1.90604502     6.82705498     1.33662601    -0.75480212    -0.18153152     1.17775338
O       1.88297998     2.67017702     1.62219402     0.68398671     0.78918858     0.16275449
