# total energy = -19516.16439637 eV

CRYSTAL
PRIMVEC
        5.17600016     0.00000000     0.00000000
        0.00000000     5.50899976     0.00000000
        0.00000000     0.00000000     9.26300011
PRIMCOORD
23 1
Ti      1.84816001     3.23106501     3.27669702    -0.42522025    -0.73304261     3.71459547
Ti      3.27131899     2.25503398     5.96733902     0.53344908     0.77389668    -2.99152232
Ti      4.37775602     2.02243999     1.37498803     1.89228532     0.16018261    -0.64117860
Ti      1.10010198     3.25227099     7.82184302    -2.24965157     1.33959409     0.00621822
Ti      1.96431098     0.34457599     1.35959997     0.31472011    -1.28806171    -0.61051587
Ti      3.30388202     5.31429502     7.93676598     0.84090428    -2.00826911     0.59823036
Ti      0.67148598     0.56792001     5.95376498    -0.84629512    -1.32769503    -2.63197629
Ti      4.45448799     4.81719899     3.49817198     1.23473316     0.10348360     3.14534634
O       1.87124299     1.89094902     4.75312599    -2.32333452    -0.93273692    -0.13391776
O       3.50427599     3.34821998     4.29905201     1.58289793     0.78214427     0.73113356
O       4.97409898     2.70117702     9.02142201     0.45213149    -0.16995821     1.69731978
O       3.50929799     0.76782598     0.29206700     0.22907946    -1.11231286    -1.39092902
O       1.76840400     4.71233902     9.02894099     0.76889486    -0.64450355     1.04507258
O       4.12008998     0.64297401     4.90048598     0.74475502    -0.25954165    -0.16699013
O       0.91192401     4.68662598     4.53187402    -0.10262305    -0.35266730    -0.09047047
O       0.12372000     3.22201697     2.44317199     0.39704738     0.87479144     0.33085791
O       5.09393599     2.16057102     6.61451798     0.14759166     0.48345165     0.18460682
O       2.62184001     2.14453600     1.94478497    -1.01557636    -0.16045309     0.01715826
O       2.59868898     3.92047803     6.73846499     0.15070424    -1.09532301     0.58027352
O       0.28940900     0.46425001     2.12390100    -1.23529700     1.07373833    -0.47830018
O       5.09443902     4.78352802     7.39725802    -0.07158802     1.02701494    -1.01804359
O       2.25132899     0.99680701     7.07802200    -0.39920222     1.71125285     0.41896784
O       2.76046000     4.74412601     2.63059599    -0.62040588     1.75501536    -2.31593720
