# total energy = -4984.56085064 eV

CRYSTAL
PRIMVEC
        3.46112502     0.00000000     0.00000000
        1.01548175     3.30880389     0.00000000
       -2.23833462    -1.65442503     4.46884599
PRIMCOORD
6 1
Ti      0.76150540     2.48172977     1.11721124     0.00137348    -0.00117062    -0.00206820
Ti      1.47676653    -0.82735107     3.35163409    -0.00137348     0.00117062     0.00206820
O       0.25390664     0.82719639     0.72793837     0.00077930     0.00185351     0.44451048
O       1.98436514     0.82718224     3.74090696    -0.00077930    -0.00185351    -0.44451048
O      -0.25387998    -0.82717668     2.96236123     0.00179283     0.00074588     0.44184938
O       2.49215175     2.48155521     1.50648415    -0.00179283    -0.00074588    -0.44184938
