# total energy = -19518.16091623 eV

CRYSTAL
PRIMVEC
        5.93400000     0.00000000     0.00000000
        0.00000000     9.29699974     0.00000000
        0.00000000     0.00000000     4.64899994
PRIMCOORD
23 1
Ti      4.53231700     7.13870498     2.24358099     0.27745993    -0.91453813    -0.02633248
Ti      4.45041200     2.25462598     2.33886200     0.23027117    -0.33824006     0.75009186
Ti      1.45761799     7.02916598     2.23975800    -0.62682824     0.14060803     0.31235573
Ti      1.46515099     2.34549900     2.30618599    -0.52066375    -1.20374827     0.34638069
Ti      2.96721199     4.44565898     0.07457700     0.63608190     0.17158752     0.24927034
Ti      3.04927299     9.26475602     0.00322899    -1.61978659     1.19701120    -0.08454742
Ti      5.92805099     4.75710699     0.06030202    -0.27976621     0.02629391    -0.72071237
Ti      0.03023899     0.01895301     4.61423501     0.86753295     0.76452784     0.28035808
O       4.44881500     5.67677800     0.87486398    -0.20658487    -0.59020672    -0.08364907
O       4.39091798     0.89149999     0.94927101    -0.09694657    -0.36240921    -0.39973701
O       1.53331003     5.63424998     0.92958599     0.15750250    -0.44869186    -0.18473357
O       1.38349201     0.88947203     0.99547401     0.48381726    -0.02591364    -0.57137801
O       4.33469797     8.35283699     3.70307301     0.63370954    -0.44259989     0.37438567
O       4.37977499     3.77562703     3.62286800     0.06376055     0.57132890     1.09203379
O       1.35283100     8.37402498     3.72251001     1.20432548    -0.71750234     0.18626158
O       1.55777998     3.69062602     3.82486702    -0.84932414     0.27174925    -0.74885181
O       2.96938902     1.42810800     3.33898499    -0.31644892    -0.14834602    -0.43421038
O       5.93337399     5.95408699     3.23667598     0.08287517     0.92553243    -0.58688511
O       5.89898699     1.22954302     3.19930701    -0.27526164     1.69968134    -0.27088639
O       2.98356399     7.90335399     1.43387799    -0.41332221    -0.76296280     0.60150698
O       2.92740400     3.13524799     1.37258498     0.31736835     0.28127596     0.30777607
O       0.02394998     7.98973598     1.49154900    -0.13617827    -0.61366933    -0.21991862
O       5.87616500     3.18721902     1.43860698     0.38640687     0.51923190    -0.16857856
