# total energy = -19075.05849807 eV

CRYSTAL
PRIMVEC
        5.17600016     0.00000000     0.00000000
        0.00000000     5.50899976     0.00000000
        0.00000000     0.00000000     9.26300011
PRIMCOORD
22 1
Ti      1.96561900     3.44600500     3.28471501     0.27793738     0.24367536    -0.77078719
Ti      3.48261899     2.24489002     5.90465802    -0.84390373     0.91891158    -0.33745613
Ti      4.46819998     2.25867598     1.23547298    -0.27972507     0.69907678    -0.59981314
Ti      0.60474699     3.23523000     8.10739902     1.23836098     0.94101099     0.67986858
Ti      1.85891999     0.42913200     1.24419599     0.11319620     0.59432846    -0.94480491
Ti      3.13273101     5.14240301     7.96832600     0.37430134    -1.33763003     0.17649550
Ti      0.47641002     0.21259098     6.12417398     1.34857753     0.35965144    -1.57429425
Ti      4.56775002     5.04866000     3.36683601    -0.55954450    -0.71214390     0.75646948
O       3.51502400     3.56084599     4.36895702    -0.11738607    -0.63273304     1.63040397
O       0.94021399     2.06865801     0.21032499    -0.04167246    -1.59911954     0.15816147
O       4.28907999     3.69097798     9.05312000    -0.70580690    -0.24364220     0.26021965
O       3.42014501     0.78354498     0.19436998     0.84771720     1.06125331    -1.07046120
O       1.65795000     4.59476801     9.11441401    -0.52966879     1.45685058     0.13372672
O       4.55062002     0.93372601     4.75975002    -0.97743505    -0.04949607    -0.05619559
O       0.91641101     4.60435300     4.49529099     0.21520784    -0.52268181     0.81239897
O       0.21965603     3.57191702     2.32416998     0.02667263    -0.68482978     0.28486599
O       5.00517799     1.95925998     6.93010500     0.51571129    -0.62318344    -0.13387765
O       2.71643500     1.95920998     2.27881203     0.32085605     0.26848035     0.29821542
O       2.50260198     3.45749598     7.13593802    -0.45440100    -1.17384350    -1.33123749
O       0.21993998     0.75345702     2.18780899    -0.39429784     0.26299798    -0.06435242
O       2.35627601     0.60717702     6.41948399    -0.27604145     0.81431470     0.60823273
O       2.90775300     4.72138901     2.22968501    -0.09865506    -0.04124848     1.08422149
