# total energy = -19517.17936580 eV

CRYSTAL
PRIMVEC
        5.17600016     0.00000000     0.00000000
        0.00000000     5.50899976     0.00000000
        0.00000000     0.00000000     9.26300011
PRIMCOORD
23 1
Ti      1.85264601     3.25400002     3.45715001    -0.03835959     0.93876153     2.39093374
Ti      3.29406398     2.24584799     5.89343100     1.46117647     0.76638597    -1.80980507
Ti      4.27140001     2.09470401     1.52210602     0.75585473    -0.15052169    -1.93153991
Ti      0.92820500     3.35650298     7.81346799    -2.03810909     0.68296187     1.53796609
Ti      1.93022101     0.35383998     1.25975597     0.95067603    -1.46576872     0.13182771
Ti      3.37735299     5.18443202     7.88389302     0.35377210    -1.08101970     2.85432203
Ti      0.72262800     0.59947802     5.88828401    -0.50563308    -0.41921570    -2.76783292
Ti      4.53332799     4.83838200     3.36402100     0.01878937     0.52780679     2.68565606
O       1.76548501     1.99416197     4.86186001    -1.49212845    -0.95739535    -0.13797419
O       3.57289001     3.49928400     4.56147001     0.26340756     0.58945390    -0.33756309
O       4.85723601     3.02940402     9.17790502     0.65507311    -0.23177167     0.69011160
O       3.29031402     1.11301100     0.17248998    -0.61475202    -1.28126011    -1.28674685
O       1.74909999     4.62179902     9.06647701     0.83056819     0.93494807     0.61470240
O       4.34258102     0.65104502     4.69237099    -0.53027377     1.12018841     0.11826693
O       0.95176799     4.66421199     4.48347701     0.84953857    -0.17834721    -0.04668019
O       0.10757099     3.14025703     2.63653902     0.99948433     0.55104418     0.09896257
O       5.10143099     2.11720299     6.67584200    -0.34966965    -0.41086424     0.42758721
O       2.66899198     1.92556198     2.48449899     0.33241419    -0.90188290    -1.95777443
O       2.72542000     3.52723398     7.15615502    -0.22016699    -1.06401647    -0.12859763
O       0.19117200     0.47854499     1.93651700    -0.82648373     0.75765990    -0.30712327
O       5.06751300     4.79032700     7.06719900     0.34621382     0.33671077     0.51583265
O       2.52874498     0.57543703     6.67419398    -0.81595686     0.70645791    -0.11993121
O       2.81725199     4.69276899     2.47099301    -0.38543499     0.22968444    -1.23460023
