# total energy = -19515.70632613 eV

CRYSTAL
PRIMVEC
        5.17600016     0.00000000     0.00000000
        0.00000000     5.50899976     0.00000000
        0.00000000     0.00000000     9.26300011
PRIMCOORD
23 1
Ti      1.86218099     3.15073198     3.33093202    -0.45606476     0.68250344     1.94055086
Ti      3.46329799     2.26878899     5.85671599    -0.70410792     0.44619789    -2.13103753
Ti      4.26066301     2.18583601     1.50099598     0.27269464    -1.01123813    -2.56712996
Ti      0.82174702     3.48567800     7.76422498     1.29233026    -1.13968561     3.92537870
Ti      1.93867901     0.04672598     1.58713100     0.27950961     1.08898446    -3.41141859
Ti      3.26328798     5.19836298     7.90356502     0.47274429     0.77097925     4.20027421
Ti      0.75963400     0.69518597     5.98569998    -0.45408373    -1.14515306    -3.69323011
Ti      4.40539500     4.90421298     3.32244799     1.43188311     0.00867928     1.31975726
O       1.81327702     1.95529301     4.80296602    -0.77400004    -0.32765328     0.41848396
O       3.62329198     3.67324599     4.51780399    -0.67435921    -0.80280566     0.38423711
O       5.03017198     3.04691598     0.09125900    -0.18351101    -0.25945166    -1.26148987
O       3.79862099     0.61602402     0.22090002    -1.09517980     0.18372287    -0.62830483
O       1.72619302     4.82331098     9.01329898    -0.24409188    -0.13014209     0.44888984
O       4.27100202     0.83795800     4.82566598     0.05640694     0.35673401     0.00284416
O       0.94549999     4.75953200     4.18093103     1.43635708     0.06370348     0.75025332
O       0.16340702     3.34267600     2.49885202     0.77023929    -0.65190730     0.66554187
O       5.08350601     1.96915703     6.97050398    -0.72047042     0.82346500    -0.09984086
O       2.38220400     1.88474902     2.01418498     0.89178052    -1.50128878     0.05626861
O       2.70733701     3.57719402     7.13340802    -1.02649866    -1.47696639    -0.49186327
O       0.23092300     0.54502399     2.00513002    -1.19595679     0.72820225     0.78117856
O       5.03118599     4.76769498     7.12787701    -0.59915725     1.70638524    -1.70827063
O       2.32527802     0.88769198     6.99225899     0.65028982     1.14338208    -0.74202785
O       3.00936001     4.10884401     1.95252202     0.57324617     0.44335297     1.84095554
