# total energy = -19905.88984214 eV

CRYSTAL
PRIMVEC
        6.65044404     0.00000000     0.00000000
        1.74233159     6.86028766     0.00000000
        0.00000000     0.00000000    11.99838454
PRIMCOORD
24 1
Ti      3.44297026     4.06540032     4.45131531    -0.29041444    -1.76607162     0.62089619
Ti      4.94980556     2.79488780     7.54706990     0.29041444     1.76607162    -0.62089619
Ti      6.44540665     2.79489017     1.54782939     0.23476057    -0.39203424    -0.26966897
Ti      1.94736921     4.06539821    10.45055596    -0.23476057     0.39203424     0.26966897
Ti      2.57180461     0.63525654     1.54787750    -0.29041444    -1.76607162    -0.62089619
Ti      5.82097125     6.22503184    10.45050786     0.29041444     1.76607162     0.62089619
Ti      1.07620342     0.63525391     7.54702180    -0.23476057     0.39203424    -0.26966897
Ti      7.31657243     6.22503441     4.45136342     0.23476057    -0.39203424     0.26966897
O       2.71841211     2.41562406     6.12268408     1.76684578     1.94220948    -0.56938078
O       5.67436365     4.44466406     5.87570114    -1.76684578    -1.94220948     0.56938078
O       1.83386502     2.41565174     0.12353013    -0.78517740     0.16264470     0.91225139
O       6.55891088     4.44463649    11.87485475     0.78517740    -0.16264470    -0.91225139
O       4.80319797     1.01452008     0.12349120    -1.76684578    -1.94220948    -0.56938078
O       3.58957785     5.84576803    11.87489368     1.76684578     1.94220948     0.56938078
O       5.68774520     1.01449245     6.12272301     0.78517740    -0.16264470     0.91225139
O       2.70503057     5.84579574     5.87566221    -0.78517740     0.16264470    -0.91225139
O       1.30141085     4.17281600     3.24106319     0.52534779     1.59097634     1.71729932
O       7.09136490     2.68747212     8.75732203    -0.52534779    -1.59097634    -1.71729932
O       4.24939184     2.68740814     2.75816761     0.56949339     1.65692645     0.90135814
O       4.14338399     4.17288004     9.24021741    -0.56949339    -1.65692645    -0.90135814
O       0.43024518     0.74267202     2.75812929     0.52534779     1.59097634    -1.71729932
O       7.96253066     6.11761616     9.24025573    -0.52534779    -1.59097634     1.71729932
O       3.27221830     0.74273599     8.75736029    -0.56949339    -1.65692645     0.90135814
O       5.12055752     6.11755213     3.24102486     0.56949339     1.65692645    -0.90135814
