# total energy = -19518.26783797 eV

CRYSTAL
PRIMVEC
        7.60600008     0.00000000     0.00000000
        0.00000000     7.60600008     0.00000000
       -1.89786986    -1.89786986     4.85670466
PRIMCOORD
23 1
Ti      3.80134800     6.57849799     1.28152098     0.88429244     0.64761819     0.21816153
Ti      3.78200202     2.85313699     1.13536598     0.28656781    -0.57317675     0.08582988
Ti      0.03199300     6.58485902     1.30581900    -0.81576711     2.00610681    -0.47311272
Ti      0.06444702     2.86869702     0.98868800    -0.67674134    -1.24354767     0.81895940
Ti      5.52142024     2.87796222     3.68134182    -0.28666525     0.82433043    -1.53389192
Ti      5.73207724    -1.02374075     3.64365779    -0.15245593    -0.49088574     0.23939165
Ti      1.90733621     3.00313921     3.65300681    -0.54523708    -2.26571274    -0.25870835
Ti      1.94757723    -0.98035780     3.70455979    -0.13843133     1.41367763    -0.09078903
O       3.82544599     4.70970002     0.75860803    -0.66800190     1.15359220     0.76470010
O       4.18270700     0.90534703     0.67637102    -0.51170860     0.34836712     1.43556853
O       0.13120998     4.84402198     0.84884799     0.68122535    -1.82226927    -0.66880203
O      -0.25113599     0.91805998     0.71215801     0.97616930     0.30288506     0.38323078
O       5.63257223     4.71428920     4.00312181     0.86771884     0.17585761     0.39076746
O       5.74982521     0.99832521     3.94561580     0.29047743     0.19404226     0.15217285
O       1.59553524     4.76338023     4.12980382    -0.12392696    -0.06041169    -0.62480221
O       1.69924424     1.02347225     4.07929380     0.31339317    -0.56071538    -0.41134041
O       3.67822021     2.91010524     3.43788483     1.68111745     0.01777353    -1.46341384
O       3.87560120    -0.93758276     3.35025684    -1.60720927     0.00142311    -1.43679906
O       0.00546725    -0.88112579     3.19915181     0.09166398    -0.31580075     0.52225270
O       5.67772502     6.37574902     1.64841502     0.23003103     0.64204712    -0.02783940
O       5.88939602     3.04550202     1.66859800    -0.27658961    -0.60172552     1.04216826
O       1.94700101     6.82895102     1.72120198     0.28052520    -0.39429244    -0.45680910
O       1.95202502     2.59834602     1.37329101    -0.78044760     0.60081690     1.39310494
