# total energy = -19902.94198194 eV

CRYSTAL
PRIMVEC
        7.57988938     0.00000000     0.00000000
        0.00002387     3.06000832     0.00000000
        0.00000000     0.00000000    11.73177890
PRIMCOORD
24 1
Ti      2.74735958     1.81335806     4.35240632    -0.50204382     0.35940847     0.97331383
Ti      4.83255389     1.24665016     7.37937269     0.50204382    -0.35940847    -0.97331383
Ti      6.53717490     1.24665120     1.51343632    -0.50199882    -0.35930409    -0.97263172
Ti      1.04273856     1.81335718    10.21834280     0.50199882     0.35930409     0.97263172
Ti      2.74734775     0.28335395     1.51348335    -0.50208547     0.35956942    -0.97357660
Ti      4.83256571     2.77665437    10.21829577     0.50208547    -0.35956942     0.97357660
Ti      1.04272673     0.28335285     7.37932566     0.50178876     0.35952906    -0.97296005
Ti      6.53718673     2.77665547     4.35245335    -0.50178876    -0.35952906     0.97296005
O       2.39909135     1.07748093     5.98663696     5.29951044    -0.41371713     0.94239990
O       5.18082216     1.98252729     5.74514205    -5.29951044     0.41371713    -0.94239990
O       1.39091463     1.07749325     0.12078524    -5.30058156    -0.41409817     0.93916417
O       6.18899894     1.98251496    11.61099345     5.30058156     0.41409817    -0.93916417
O       5.18081034     0.45252313     0.12074719    -5.29915999     0.41379735     0.94234180
O       2.39910312     2.60748509    11.61103150     5.29915999    -0.41379735    -0.94234180
O       6.18898711     0.45251080     5.98667507     5.30042344     0.41413134     0.93943722
O       1.39092630     2.60749747     5.74510394    -5.30042344    -0.41413134    -0.93943722
O       0.27540945     1.86127051     3.16904615     0.35145888    -0.19977042     1.43429660
O       7.30450401     1.19873770     8.56273286    -0.35145888     0.19977042    -1.43429660
O       4.06536412     1.19870926     2.69688061     0.35361809     0.19959815    -1.43462776
O       3.51454939     1.86129901     9.03489819    -0.35361809    -0.19959815     1.43462776
O       0.27539762     0.33126635     2.69684314     0.35038981    -0.19930685    -1.43552482
O       7.30451584     2.72874186     9.03493565    -0.35038981     0.19930685     1.43552482
O       3.51453757     0.33129480     8.56277022    -0.35406006    -0.19999102    -1.43439867
O       4.06537595     2.72871342     3.16900874     0.35406006     0.19999102     1.43439867
