# total energy = -19517.28518616 eV

CRYSTAL
PRIMVEC
        7.60600008     0.00000000     0.00000000
        0.00000000     7.60600008     0.00000000
       -1.89786986    -1.89786986     4.85670466
PRIMCOORD
23 1
Ti      3.83512200     6.83853601     1.23409702     0.37078998    -0.55737243    -1.52013831
Ti      3.77958199     2.92164300     1.28710798    -0.07798442     0.92304463     0.79229756
Ti      0.02882503     6.55752998     1.06594200    -0.41220095     0.87377174     0.81499167
Ti     -0.09060800     2.72319598     1.15312999    -0.40189006    -0.17944841     0.76278308
Ti      5.70903823     2.68667222     3.74895083    -1.40443271    -0.27399871    -0.79506535
Ti      5.68376124    -1.08754979     3.53239880     0.59543300     0.56730255    -0.40144114
Ti      2.08691722     2.82056724     3.78243981     0.39438269     2.12686360     1.30584038
Ti      1.89934923    -0.82430480     3.59798582    -0.41011939    -1.50178834    -0.44797298
O       4.02953601     4.86706600     1.04029802    -1.26420855    -0.57146594    -0.50713537
O       3.75499800     1.14509200     0.69700301    -0.74680136    -1.24751566     0.23351256
O      -0.13155802     4.66711098     0.82217698     0.96262575    -0.13526939    -0.13252473
O       0.15127902     0.90080002     0.57452398     0.01052764    -0.97317885     1.18820414
O       5.54844622     4.61500523     3.92456280     0.65067369     0.54427934    -0.33170611
O       5.72403824     0.79972520     4.11547180     0.79388007     1.77428630    -1.53907115
O       1.95702722     4.85043825     4.03625582    -0.13834134     0.43025268     0.46854310
O       1.70641724     1.05181022     4.07032980    -1.10978315    -0.36515001     0.49785137
O       3.83545025     2.58221025     3.68289983     0.27076272     0.37489063    -2.31608247
O       3.75020122    -0.57785378     3.16818981     0.53248749    -0.84259633     0.18701440
O      -0.09126477    -1.12282575     2.97346581     0.89771051     0.27537425     1.30040481
O       5.75955498     6.94360400     1.42131601    -0.77525243    -0.42392647     0.77685834
O       5.55590302     2.70325298     1.46990200     2.48223287     0.00450303     1.08176249
O       1.94010498     6.75640500     1.49578199    -0.80550841    -0.31683767     0.43153309
O       1.67051801     3.01138898     2.03623199    -0.41498392    -0.50602054    -1.85045963
