# total energy = -19940.54033351 eV

CRYSTAL
PRIMVEC
        5.86169906     0.00000000     0.00000000
        1.83043133     5.96405100     0.00000000
        0.00000000     0.00000000    10.61388667
PRIMCOORD
24 1
Ti      3.20929586     3.53429113     3.93767625     0.25659156    -2.31116420     0.90065417
Ti      4.48283443     2.42976001     6.67621048    -0.25659156     2.31116420    -0.90065417
Ti      5.80105680     2.42976206     1.36922470    -0.86036060    -0.68391472     0.21340807
Ti      1.89107358     3.53428930     9.24466214     0.86036060     0.68391472    -0.21340807
Ti      2.29408033     0.55226573     1.36926726     0.25659156    -2.31116420    -0.90065417
Ti      5.39804998     5.41178558     9.24461959    -0.25659156     2.31116420     0.90065417
Ti      0.97585793     0.55226350     6.67616792     0.86036060     0.68391472     0.21340807
Ti      6.71627238     5.41178781     3.93771881    -0.86036060    -0.68391472    -0.21340807
O       2.49979072     2.10004379     5.41618513     1.64538759     1.99915198    -0.76940676
O       5.19233958     3.86400741     5.19770160    -1.64538759    -1.99915198     0.76940676
O       1.72015240     2.10006785     0.10927593    -0.37926100    -0.29640022     1.09401097
O       5.97197796     3.86398340    10.50461050     0.37926100     0.29640022    -1.09401097
O       4.27712402     0.88198183     0.10924150    -1.64538759    -1.99915198    -0.76940676
O       3.41500627     5.08206936    10.50464493     1.64538759     1.99915198     0.76940676
O       5.05676240     0.88195782     5.41621956     0.37926100     0.29640022     1.09401097
O       2.63536784     5.08209344     5.19766717    -0.37926100    -0.29640022    -1.09401097
O       1.32634118     3.62767395     2.86707558     0.44214840     1.67854635     1.64059402
O       6.36578911     2.33637724     7.74681114    -0.44214840    -1.67854635    -1.64059402
O       3.86087239     2.33632163     2.43990153     0.94103079     1.43440613     0.60388988
O       3.83125790     3.62772956     8.17398502    -0.94103079    -1.43440613    -0.60388988
O       0.41112557     0.64564838     2.43986763     0.44214840     1.67854635    -1.64059402
O       7.28100467     5.31840282     8.17401892    -0.44214840    -1.67854635     1.64059402
O       2.91604235     0.64570399     7.74684499    -0.94103079    -1.43440613     0.60388988
O       4.77608795     5.31834721     2.86704168     0.94103079     1.43440613    -0.60388988
