# total energy = -19075.99255020 eV

CRYSTAL
PRIMVEC
        7.60600008     0.00000000     0.00000000
        0.00000000     7.60600008     0.00000000
       -1.89786986    -1.89786986     4.85670466
PRIMCOORD
22 1
Ti      3.90792203     6.71403299     1.28029800     0.01046542    -0.14525684    -1.51191875
Ti      3.79903899     2.93288400     1.24348600    -0.00644293     0.05079216    -0.33812513
Ti     -0.00064798     6.58039298     1.01293897     0.17860483     0.03441963     0.54264104
Ti     -0.06824598     2.80952802     1.08127100    -0.35616528    -0.26930130     1.31323899
Ti      5.62988723     2.72716825     3.57336580     0.81147208     0.59126576    -0.66850712
Ti     -1.45934877    -0.95128776     3.74533681    -0.90100641    -0.63918677    -1.01052619
Ti      1.86485323     2.86966224     3.64153383    -0.78396821    -0.17461782    -0.25527696
Ti      1.54830823    -0.94445576     3.81409080     0.98028178     0.58329379    -0.64487971
O       3.71324100     4.76819299     0.82130003     0.25877777     0.82030588    -0.27330811
O       4.14100000     1.02757401     0.83889199    -1.20441135    -0.78181697     0.50501344
O       0.08066000     4.64218700     0.62991402     0.02746762     1.09292314     0.24170821
O       7.27279299     0.90628700     0.64428198     1.09563231     0.11017567     1.34445862
O       5.63758623     4.77064721     3.99148282     0.53472744     0.12812969    -0.15762359
O       5.34088121     0.85567321     3.86210480     1.29484197    -0.21017259     0.19024114
O       2.03137822     4.83974421     4.15990983    -0.66213901    -0.22141860     0.34590144
O       1.96514322     1.00292620     4.05455281    -0.67581472    -0.50011369    -0.10455652
O       3.76017923     3.00096720     3.21289983    -0.33489351    -0.27242751    -0.25884076
O      -0.09871278     2.91261921     3.17812982     0.85011089    -0.48196092     0.13835754
O       5.84054698     6.42717299     1.83039998    -0.32421391     0.46548220    -0.10926755
O       5.71657700     3.01592403     1.56902901    -0.86608491    -0.18392368     0.26367495
O       2.08389699     6.61623198     1.91947802    -0.73340565     0.50791776     0.43163644
O       1.79385600     2.86000602     1.63080998     0.80616378    -0.50450848     0.01595859
