# total energy = -4989.62853030 eV

CRYSTAL
PRIMVEC
        3.99829391     0.00000000     0.00000000
        0.39882303     3.97835322     0.00000000
       -2.19859393    -1.98920870     5.10911906
PRIMCOORD
6 1
Ti      0.29896407     2.98391625     1.27727952    -0.00003574     0.00003574     0.00000000
Ti      1.89955859    -0.99477205     3.83183893     0.00003574    -0.00003574    -0.00000000
O       0.09974791     0.99458201     0.83223366    -0.00045149    -0.00121665    -0.70451004
O       2.09877463     0.99456209     4.27688490     0.00045149     0.00121665     0.70451004
O      -0.09972578    -0.99456199     3.38679308    -0.00121665    -0.00045149    -0.70451004
O       2.29824826     2.98370604     1.72232548     0.00121665     0.00045149     0.70451004
