# total energy = -19922.05848988 eV

CRYSTAL
PRIMVEC
        6.21533301     0.00000000     0.00000000
        3.11296477     5.83674574     0.00000000
        0.00000000     0.00000000    11.51139184
PRIMCOORD
24 1
Ti      4.09749934     3.45885013     4.27064429     0.55286863    -2.80467658     0.53193959
Ti      5.23079860     2.37789577     7.24074768    -0.55286863     2.80467658    -0.53193959
Ti      6.62854927     2.37789785     1.48500570    -1.63227445    -1.23872094     0.72891702
Ti      2.69974887     3.45884832    10.02638633     1.63227445     1.23872094    -0.72891702
Ti      2.54101720     0.54047745     1.48505188     0.55286863    -2.80467658    -0.53193959
Ti      6.78728086     5.29626867    10.02634021    -0.55286863     2.80467658     0.53193959
Ti      1.14326642     0.54047521     7.24070150     1.63227445     1.23872094     0.72891702
Ti      8.18503162     5.29627085     4.27069040    -1.63227445    -1.23872094    -0.72891702
O       3.06332001     2.05521744     5.87417517     1.74172661     2.05688766    -1.06285125
O       6.26497800     3.78152849     5.63721680    -1.74172661    -2.05688766     1.06285125
O       2.23665113     2.05524094     0.11851624     0.55540297    -1.32646732     1.72559138
O       7.09164697     3.78150504    11.39287536    -0.55540297     1.32646732    -1.72559138
O       4.70849574     0.86315559     0.11847888    -1.74172661    -2.05688766    -1.06285125
O       4.61980226     4.97359028    11.39291272     1.74172661     2.05688766     1.06285125
O       5.53516470     0.86313214     5.87421247    -0.55540297     1.32646732     1.72559138
O       3.79313326     4.97361381     5.63717944     0.55540297    -1.32646732    -1.72559138
O       2.11929904     3.55023959     3.10951412     0.68215609     3.04956602     2.83901702
O       7.20899898     2.28650635     8.40187778    -0.68215609    -3.04956602    -2.83901702
O       4.55295054     2.28645183     2.64621842     0.79039623     1.95407281     1.69676956
O       4.77534748     3.55029410     8.86517330    -0.79039623    -1.95407281    -1.69676956
O       0.56281677     0.63186669     2.64618168     0.68215609     3.04956602    -2.83901702
O       8.76548123     5.20487919     8.86521004    -0.68215609    -3.04956602     2.83901702
O       3.21886521     0.63192120     8.40191446    -0.79039623    -1.95407281     1.69676956
O       6.10943279     5.20482468     3.10947738     0.79039623     1.95407281    -1.69676956
