# total energy = -4986.70422850 eV

CRYSTAL
PRIMVEC
        3.97428998     0.00000000     0.00000000
       -0.00000740     3.25169162     0.00000000
       -1.98717151    -1.62588297     4.65755515
PRIMCOORD
6 1
Ti     -0.00017249     2.43888991     1.16438891    -0.00239293    -0.00885823     7.22707362
Ti      1.98728356    -0.81308146     3.49316639     0.00239293     0.00885823    -7.22707362
O       0.00004100     0.81291606     0.75867773     0.00202937     0.00362371    -1.27560934
O       1.98706997     0.81289229     3.89887762    -0.00202937    -0.00362371     1.27560934
O      -0.00001922    -0.81290866     3.08745521    -0.00049288    -0.00017715     0.83719161
O       1.98713009     2.43871701     1.57010010     0.00049288     0.00017715    -0.83719161
