# total energy = -19068.18603876 eV

CRYSTAL
PRIMVEC
        5.17600016     0.00000000     0.00000000
        0.00000000     5.50899976     0.00000000
        0.00000000     0.00000000     9.26300011
PRIMCOORD
22 1
Ti      1.62544502     3.35913500     3.16462902     3.20358596    -0.50894055    -0.37611988
Ti      3.48417001     2.50099699     5.93119198    -1.22674191     0.88402247     0.18351127
Ti      4.59529697     2.19770000     1.54202399    -2.04854649    -0.49642107    -2.25023341
Ti      0.82928499     2.23451201     7.71901398    -0.15359416     2.94941663     2.15528896
Ti      1.76400702     0.45625700     1.23368299     2.12331137     0.53477757    -2.10423069
Ti      3.51561600     0.10025501     7.76877802    -3.22435534    -6.73727031     2.46701579
Ti      0.76948003     5.39248901     6.43500100     1.33231864    -2.40070573    -0.17948081
Ti      4.58033401     5.00372301     3.67753402    -1.84269104    -0.03650479    -0.40049909
O       3.25011401     3.74616302     4.33130600     2.21248780    -1.24868525     1.90996140
O       0.98849601     2.31582797     0.48685498    -0.53821231    -1.45323638    -2.39142405
O       4.95041698     4.01756300     7.71397801    -3.00381322     1.19986744    -1.87431407
O       3.76387702     0.39256501     0.26093302    -0.64668565     0.21213974     1.92114391
O       1.61372899     0.01168598     8.37043298    -0.38316239     3.12608774     2.04969654
O       4.49850299     0.94584702     5.49953902    -0.74039674    -1.04585496    -1.98264420
O       0.94548703     4.48849398     4.51972999    -1.42605724     0.50843070     0.88424976
O       0.16550400     3.77582700     2.10036102    -1.81482592     1.54663945     1.82134702
O       4.14547800     1.62403900     7.68205598     2.08881692     6.63401992    -0.84341034
O       2.61561900     1.82728498     2.33219299     1.11378430    -0.02764143     0.13085763
O       1.88012301     4.02068102     6.81748100     3.70148541    -3.28389131    -1.20548865
O       0.15002598     0.80258498     2.34991599     0.42964461    -0.96829478     2.13932600
O       1.82096401     1.50282402     6.25905999     1.19247629    -0.39761894    -1.00137512
O       2.61396199     4.59767298     2.27207502    -0.34882941     1.00966384    -1.05317772
