# total energy = -19940.68814283 eV

CRYSTAL
PRIMVEC
        4.93914814     0.00000000     0.00000000
        1.78521421     4.94433069     0.00000000
        0.00000000     0.00000000     8.98274818
PRIMCOORD
24 1
Ti      2.84812000     2.93000571     3.33253552     3.36976079    -2.94187867     1.15254781
Ti      3.87624252     2.01432485     5.65021276    -3.36976079     2.94187867    -1.15254781
Ti      4.98699493     2.01432653     1.15880275    -6.64796764     0.94158409     2.16578086
Ti      1.73736762     2.93000417     7.82394563     6.64796764    -0.94158409    -2.16578086
Ti      1.95551302     0.45784050     1.15883877     3.36979318    -2.94152746    -1.15237503
Ti      4.76884952     4.48649016     7.82390962    -3.36979318     2.94152746     1.15237503
Ti      0.84476054     0.45783868     5.65017675     6.64837670    -0.94122054     2.16550421
Ti      5.87960201     4.48649203     3.33257154    -6.64837670     0.94122054    -2.16550421
O       2.19187589     1.74098283     4.58382764    -1.11166469     0.05394305    -1.09458870
O       4.53248664     3.20334772     4.39892064     1.11166469    -0.05394305     1.09458870
O       1.53494289     1.74100277     0.09248245     1.52245410    -0.70101437    -0.79042374
O       5.18941970     3.20332782     8.89026558    -1.52245410     0.70101437     0.79042374
O       3.63987964     0.73118241     0.09245330     1.11182230    -0.05378338    -1.09461827
O       3.08448288     4.21314814     8.89029473    -1.11182230     0.05378338     1.09461827
O       4.29681269     0.73116246     4.58385679    -1.52230472     0.70094700    -0.79009335
O       2.42754978     4.21316810     4.39889149     1.52230472    -0.70094700     0.79009335
O       1.26531912     3.00742212     2.42646439    -0.19819819    -2.05256255    -2.13441108
O       5.45904341     1.93690843     6.55628390     0.19819819     2.05256255     2.13441108
O       3.34836373     1.93686237     2.06493831     1.95522132    -2.31348617    -2.96175459
O       3.37599880     3.00746818     6.91780983    -1.95522132     2.31348617     2.96175459
O       0.37271212     0.53525681     2.06490960    -0.19808275    -2.05261732     2.13468876
O       6.35165040     4.40907374     6.91783853     0.19808275     2.05261732    -2.13468876
O       2.48339180     0.53530287     6.55631250    -1.95494004     2.31330593    -2.96186283
O       4.24097072     4.40902769     2.42643574     1.95494004    -2.31330593     2.96186283
