# total energy = -4989.96677639 eV

CRYSTAL
PRIMVEC
        2.91110849     0.00000000     0.00000000
        0.45498928     4.53852112     0.00000000
       -0.00000303    -0.00005919     4.56699702
PRIMCOORD
6 1
Ti      1.68304742     2.26923096     2.28349851     0.00000000     0.00000000     0.00000000
Ti      0.00000000     0.00000000     0.00000000     0.00000000     0.00000000     0.00000000
O       1.54422437     0.88447942     0.89004044    -0.76715036     0.36900023     0.36521968
O       1.82187053     3.65398250     3.67695652     0.76715036    -0.36900023    -0.36521968
O       0.13882182     1.38472755     3.17353988     0.76709765    -0.36882206     0.36504073
O       0.31616464     3.15373427     1.39345709    -0.76709765     0.36882206    -0.36504073
