# total energy = -19961.93245011 eV

CRYSTAL
PRIMVEC
        7.60600008     0.00000000     0.00000000
        0.00000000     7.60600008     0.00000000
       -1.89786986    -1.89786986     4.85670466
PRIMCOORD
24 1
Ti      3.81933299     6.73711797     1.15612899     0.53553373    -1.27698282     0.10008537
Ti      3.83344800     2.80214901     1.16252500    -0.99198982     0.92445283     0.66517832
Ti     -0.02573601     6.62609701     1.24355802    -0.63686840    -0.08656188    -0.88906929
Ti     -0.06181102     2.81848900     1.28912198     0.73164239     0.40089375    -0.22214674
Ti      5.68925521     2.82719523     3.68266482    -0.45766733     0.09093944     0.23787624
Ti      5.68866221    -0.94078179     3.65186480    -0.22032922    -0.08844907    -0.32633508
Ti      1.95017322     2.82369325     3.65530381     0.18269572     0.51129748    -0.07527422
Ti      1.94349320    -0.94310075     3.56686983     0.16272775    -0.49548827    -0.06769537
O       3.91006900     4.78665900     0.78955299    -0.37970683    -0.51549378    -0.14407362
O       3.86608199     0.93881902     0.73043198    -0.28184623     0.52029094    -0.01650469
O      -0.20116297     4.70927599     0.81128201     0.61484330     1.00393260     0.28041978
O      -0.06278598     1.01709799     0.71043998     0.21684152    -1.45704522     1.30579796
O       5.52575420     4.74037520     4.04608984     0.53358946     0.10081119     0.31978776
O       5.71942223     0.95117621     4.16334879     0.28765281     0.31461238    -0.93611870
O       2.08470124     4.77344624     4.00488884    -0.56178368     0.03038197     0.17403932
O       1.87275220     0.91158020     4.02249583    -0.31200246     0.31550199     0.43468500
O       3.75743121     2.65929825     3.21717283     0.84046565     0.22792478    -0.01535695
O       3.81095125    -0.84964678     3.17106181    -0.09130582    -0.02497571     0.02232001
O      -0.02013578     2.91462823     3.25116983    -0.08011432    -0.16829368     0.20546336
O      -0.01964078    -1.01961280     3.14375780     0.36478054    -0.07215418     0.88009691
O       5.70817800     6.79057498     1.66293099    -0.11493992    -0.08126309    -0.40330211
O       5.64393499     2.82927300     1.70966602     0.51302346    -0.19899266    -0.34599245
O       1.90755899     6.71051200     1.61392801    -0.17655309    -0.09048872    -0.59986430
O       1.93886999     2.83569499     1.67664499    -0.67868947     0.11514947    -0.58401653
