# total energy = -19952.98694120 eV

CRYSTAL
PRIMVEC
        5.83307302     0.00000000     0.00000000
        0.00002464     4.58863534     0.00000000
        0.00000000     0.00000000     9.28715084
PRIMCOORD
24 1
Ti      2.11422304     2.71922109     3.44546672    -0.14028947     1.20067580    -2.10620041
Ti      3.71887468     1.86941441     5.84168417     0.14028947    -1.20067580     2.10620041
Ti      5.03065881     1.86941600     1.19807162    -0.13807498    -1.20069585     2.10763354
Ti      0.80243891     2.71921970     8.08907937     0.13807498     1.20069585    -2.10763354
Ti      2.11421082     0.42490352     1.19810885    -0.14028947     1.20067580     2.10620041
Ti      3.71888690     4.16373213     8.08904214     0.14028947    -1.20067580    -2.10620041
Ti      0.80242669     0.42490177     5.84164693     0.13807498     1.20069585     2.10763354
Ti      5.03067102     4.16373388     3.44550396    -0.13807498    -1.20069585    -2.10763354
O       1.84621315     1.61573654     4.73916199     0.90429074    -1.03761457     1.40466334
O       3.98688462     2.97289896     4.54798890    -0.90429074     1.03761457    -1.40466334
O       1.07037487     1.61575505     0.09561644    -0.90417478    -1.03800127     1.40464766
O       4.76272295     2.97288050     9.19153419     0.90417478     1.03800127    -1.40464766
O       3.98687240     0.67858124     0.09558631    -0.90429074     1.03761457     1.40466334
O       1.84622537     3.91005426     9.19156432     0.90429074    -1.03761457    -1.40466334
O       4.76271073     0.67856278     4.73919212     0.90417478     1.03800127     1.40464766
O       1.07038699     3.91007277     4.54795877    -0.90417478    -1.03800127    -1.40464766
O       0.21194403     2.79106812     2.50869114     0.66343125    -0.35869422     0.69586856
O       5.62115373     1.79756737     6.77845975    -0.66343125     0.35869422    -0.69586856
O       3.12848683     1.79752458     2.13491384     0.66411336     0.35889065    -0.69603105
O       2.70461094     2.79111097     7.15223689    -0.66411336    -0.35889065     0.69603105
O       0.21193182     0.49675045     2.13488418     0.66343125    -0.35869422    -0.69586856
O       5.62116595     4.09188509     7.15226655    -0.66343125     0.35869422     0.69586856
O       2.70459872     0.49679325     6.77848936    -0.66411336    -0.35889065    -0.69603105
O       3.12849905     4.09184225     2.50866147     0.66411336     0.35889065     0.69603105
