# total energy = -19520.00215372 eV

CRYSTAL
PRIMVEC
        5.17575250     0.00001323     0.00000000
        0.00001429     5.50856584     0.00000000
        0.00000000     0.00000000     9.26345890
PRIMCOORD
23 1
Ti      1.84995167     3.38506012     3.40476708    -0.01168644    -0.04011102    -0.02030375
Ti      3.37581901     2.17330239     5.77224594    -0.01191450     0.01480982    -0.00167405
Ti      4.56657030     1.94762469     1.42640779    -0.00551116    -0.03252061    -0.01427323
Ti      0.85187032     3.30135290     7.94686052     0.00684736    -0.00983756    -0.01039497
Ti      2.01761090     0.51120597     1.24077880     0.02237632    -0.01866570     0.00866179
Ti      3.16359000     5.16082407     7.92208321     0.03347243     0.00212013    -0.00832806
Ti      0.63495311     0.71282820     5.64804310    -0.01102798     0.01860528     0.05573022
Ti      4.56177489     4.84067275     3.56042053    -0.01127172    -0.01878269     0.04040542
O       1.54707866     1.95151777     4.65920261    -0.00464676    -0.01314040    -0.01732718
O       3.56484883     3.53270461     4.51362761     0.01085803     0.01591616    -0.02104963
O       0.73774897     2.10482463     0.10336896    -0.01234079     0.00095774     0.02298079
O       3.51912899     0.89686986     0.06994747     0.00828667    -0.05240836    -0.00018769
O       1.72372830     4.68678887     9.15342934    -0.04761993     0.04023058    -0.00222966
O       4.07481916     0.77854699     4.69983082    -0.01765834    -0.03577846    -0.01414364
O       1.01711539     4.63205682     4.61905994     0.01717575     0.00768015    -0.00864071
O       0.16759534     3.35380672     2.41153541     0.04158684     0.02385470    -0.02473145
O       4.95154225     2.13455927     6.83120522    -0.01190807     0.01839779     0.01653349
O       2.77464885     2.14658534     2.09694549     0.01443546    -0.05228880    -0.00023371
O       2.48880349     3.39435074     7.14327062     0.02859119     0.04975524    -0.00719061
O       0.25758194     0.53591680     2.18544712     0.01160699     0.05407443     0.00535484
O       4.90542776     4.76291722     7.38096329    -0.03762579    -0.00275134    -0.01673635
O       2.32701029     0.71424220     6.74613924    -0.00945369     0.03429313     0.00050882
O       2.80396946     4.87549622     2.45784287    -0.00257188    -0.00441047     0.01726934
