# total energy = -19921.33559153 eV

CRYSTAL
PRIMVEC
        4.85421441     0.00000000     0.00000000
        2.21285550     4.66845396     0.00000000
        0.00000000     0.00000000     8.92804747
PRIMCOORD
24 1
Ti      3.07075532     2.76652147     3.31224191     5.51279046    -4.72118042     1.32561140
Ti      3.99631443     1.90193243     5.61580561    -5.51279046     4.72118042    -1.32561140
Ti      5.08796639     1.90193401     1.15174619   -11.49654293     3.21370737     2.81252282
Ti      1.97910344     2.76652007     7.77630148    11.49654293    -3.21370737    -2.81252282
Ti      1.96432769     0.43229456     1.15178197     5.51317742    -4.72067262    -1.31592708
Ti      5.10274209     4.23615948     7.77626570    -5.51317742     4.72067262     1.31592708
Ti      0.87267568     0.43229284     5.61576983    11.49725769    -3.21260025     2.79416668
Ti      6.19439414     4.23616119     3.31227774   -11.49725769     3.21260025    -2.79416668
O       2.31557350     1.64384198     4.55591429    -2.04196549    -0.30614420    -1.41372108
O       4.75149625     3.02461192     4.37213328     2.04196549     0.30614420     1.41372108
O       1.66993902     1.64386084     0.09191927     2.45492312     0.16819829    -2.70773027
O       5.39713079     3.02459314     8.83612806    -2.45492312    -0.16819829     2.70773027
O       3.64506859     0.69038492     0.09189026     2.04193515     0.30584260    -1.41380516
O       3.42200116     3.97806903     8.83615702    -2.04193515    -0.30584260     1.41380516
O       4.29070312     0.69036609     4.55594325    -2.45512315    -0.16770772    -2.70784854
O       2.77636658     3.97808786     4.37210428     2.45512315     0.16770772     2.70784854
O       1.52234895     2.83961837     2.41168836     0.03802406    -4.72472854    -4.16319143
O       5.54472074     1.82883554     6.51635921    -0.03802406     4.72472854     4.16319143
O       3.47033231     1.82879209     2.05236379     2.78933635    -3.78155988    -5.15935364
O       3.59673743     2.83966180     6.87568358    -2.78933635     3.78155988     5.15935364
O       0.41592129     0.50539132     2.05233528     0.03804463    -4.72477559     4.16367969
O       6.65114841     4.16306259     6.87571210    -0.03804463     4.72477559    -4.16367969
O       2.49030977     0.50543475     6.51638763    -2.78937363     3.78162570    -5.15968325
O       4.57675998     4.16301914     2.41165985     2.78937363    -3.78162570     5.15968325
