# total energy = -19515.74789031 eV

CRYSTAL
PRIMVEC
        5.93400000     0.00000000     0.00000000
        0.00000000     9.29699974     0.00000000
        0.00000000     0.00000000     4.64899994
PRIMCOORD
23 1
Ti      4.34980498     7.08620298     2.26590000     1.85750214    -0.76336518     0.17983279
Ti      4.41764402     2.30814099     2.46066500     1.00373385     1.20465252    -0.97112274
Ti      1.29203298     7.13020100     1.99327698    -0.72510047    -0.44018177     1.70449676
Ti      1.46668201     2.15907599     2.42643898    -1.87303881     2.48651248    -2.62656463
Ti      3.07032101     4.55957201     0.20643199     1.30357293    -1.64417789     0.99898245
Ti      2.99189202     9.27422798     0.06910002    -0.35575185     0.50833299    -0.88439014
Ti      0.14256099     4.67620299     4.58957302    -0.83865200    -0.85513534     0.41483968
Ti      0.00069698     9.25172598     4.58203098     0.53034010     0.29856021    -0.69550526
O       4.72533101     5.54536498     1.08850099    -2.26274748     0.44580297    -1.14598661
O       4.44082802     0.84698401     0.85851198    -0.28468396     0.89973037    -0.43827684
O       1.68554199     5.54427202     0.97814202    -0.23297854     0.66996931    -0.79447580
O       1.40239300     0.96248399     0.76252002     0.37800321    -0.90127072    -0.14853088
O       4.36677098     8.16727098     3.81224101    -0.48275771     0.95687522     0.30748168
O       4.53797702     3.76640098     3.79245698    -0.65902258    -0.04313053    -0.72199689
O       1.45922399     8.17947100     3.51299202     0.48393219     1.97565748     2.54434458
O       1.39499902     3.50067002     3.81651301     1.26594893     2.11929556     0.22752857
O       2.84825802     1.51688500     3.31441100     2.98251266    -1.68105780     0.38777649
O       5.92126398     6.27459901     3.16733503     0.50912669    -1.50684930     0.27061076
O       5.91587801     1.32782801     3.03881401    -0.94325402    -1.27128037     1.34311368
O       2.96614998     8.15765901     1.52800100    -0.35994866    -1.42119091    -0.10190597
O       3.06235197     3.23017202     1.47075101    -0.24125364     0.15144446    -0.46002041
O       5.79618600     8.13577298     1.42501200    -0.36105244    -0.87697147    -0.15088756
O       0.11346799     3.27407299     1.37735800    -0.69443028    -0.31222254     0.76065575
