# total energy = -19960.64651654 eV

CRYSTAL
PRIMVEC
        5.93400000     0.00000000     0.00000000
        0.00000000     9.29699974     0.00000000
        0.00000000     0.00000000     4.64899994
PRIMCOORD
24 1
Ti      4.43553900     6.96057900     2.31316701     0.79796813     0.23576973    -0.22427047
Ti      4.40944601     2.24582100     2.39915101    -0.31813582     0.48189896    -0.87952458
Ti      1.54483403     6.90485600     2.33491497    -0.91305512     0.59960282    -0.08820224
Ti      1.39627302     2.34355998     2.24358898     0.32885424     0.18367736    -0.78973931
Ti      2.98606001     4.63801401     0.01076701    -0.37788854    -0.01241766     0.74965837
Ti      3.00810400     0.04816000     4.60598403    -1.68213175    -0.58013802     0.26502530
Ti      0.01104202     4.60615199     4.55709302     0.64865254     0.40746961     0.58983108
Ti      5.91324101     9.28342201     0.04371300     1.57652391    -0.82187143     0.12393030
O       4.42352599     5.56873900     0.98424698     0.25202528    -0.28069721    -0.36866573
O       4.47650901     1.03137202     0.89503601    -0.43638579    -1.06881081    -0.30790077
O       1.53864800     5.39816099     0.98312100    -0.46980886     1.21050847     0.24558518
O       1.53691102     0.96671000     0.91501499    -0.32988757    -0.57473999    -0.46354385
O       4.38950502     8.35185600     3.74838900     0.46292293     1.38169670     1.27613462
O       4.49634501     3.89011802     3.62246202    -0.30400709    -0.88757985    -0.25403074
O       1.45107800     8.41376899     3.81455600     0.50095804     0.41864208     0.45587399
O       1.49229699     3.76789601     3.70236900    -0.14187430     0.29355453    -0.32784123
O       2.94933702     6.16128698     3.33823202     0.35122953    -0.61474225    -0.08243988
O       2.89837698     1.42093400     3.14573898     1.16941940    -0.22812584     0.89176535
O       0.02254300     6.24860302     3.32955198    -0.25672012    -1.37033910     0.30093102
O       0.10203400     1.38233999     3.27420099    -1.37224969     0.83438114    -0.68218566
O       2.91574802     8.00325101     1.59579300     0.64510134    -0.33278443    -1.11788110
O       2.94900702     3.22205402     1.37949799     0.84119996    -0.09924822     0.16552485
O       0.05839900     7.91851201     1.49810302    -0.77551571     0.24512392    -0.72134434
O       5.91877399     3.10354599     1.20138799    -0.19719520     0.57916923     1.24330985
