# total energy = -19517.77261533 eV

CRYSTAL
PRIMVEC
        5.17600016     0.00000000     0.00000000
        0.00000000     5.50899976     0.00000000
        0.00000000     0.00000000     9.26300011
PRIMCOORD
23 1
Ti      1.80687800     3.31430898     3.39877001     0.36364282    -0.61888816     2.76497436
Ti      3.32997400     2.17444499     5.79266200     1.12981668     1.21082369    -2.18647542
Ti      4.33538802     2.01969102     1.53889898     0.51359296     0.53494418    -1.31376787
Ti      0.83273999     3.34844599     7.83098900    -0.52642071    -0.29864428     0.39080731
Ti      1.92288302     0.36227300     1.36672201     1.29130182    -0.99303703    -1.44238735
Ti      3.32609503     5.15982998     7.96064600    -0.53235199    -0.84693301     0.96379586
Ti      0.78531200     0.53432699     5.85639801    -1.01666599     0.37838348    -2.31196125
Ti      4.48173501     4.92026599     3.43677499     0.10750943    -0.21474581     2.58132580
O       1.77726402     1.86045100     4.70365200    -0.52091906    -0.09914897    -0.93298375
O       3.55153401     3.54912001     4.49756201    -0.10009617     0.10511651    -0.27942554
O       4.91032201     2.75039198     9.21853900     0.81385395     0.53809867    -0.68522187
O       3.64489701     0.61292601     0.25417500    -0.41561435     0.10446730    -0.39522344
O       1.68476701     4.77953601     9.02295202     0.87901550    -0.18596513     1.06933866
O       4.26591398     0.73642799     4.74725398     0.10512833    -0.32550821    -0.33570778
O       0.97975199     4.62905901     4.58133802    -0.08088334     0.06093542    -0.21091076
O       0.09421202     3.36273701     2.53085899     0.58842674    -0.18008913    -0.35413180
O       0.00406101     2.26829500     6.38224700     0.09500153     0.22476284     2.15268957
O       2.59004101     2.08901700     2.12620498    -0.77547971    -0.01614525    -0.87325134
O       2.55965999     3.41216698     6.98785798     0.17136306     0.56464583     1.64728764
O       0.22010302     0.65785400     2.17705600     0.57783328    -0.48101733     0.05492650
O       0.07476999     4.90927498     7.34140802    -2.17127737     1.14574621    -1.18468507
O       2.47546900     0.72175702     6.71536598     0.27880539    -0.79214407     1.87886159
O       2.81850202     4.76127897     2.53307497    -0.77558230     0.18434251    -0.99787379
