# total energy = -19957.79172135 eV

CRYSTAL
PRIMVEC
        5.12354622     0.00000000     0.00000000
        1.07982920     5.34501686     0.00000000
        0.00000000     0.00000000     9.21667365
PRIMCOORD
24 1
Ti      2.49694478     3.16745204     3.41932030     1.18032294    -1.29485534     0.72214730
Ti      3.70643039     2.17756495     5.79735371    -1.18032294     1.29485534    -0.72214730
Ti      4.85865125     2.17756686     1.18897988    -1.99174668    -0.47676549     0.97391547
Ti      1.34472394     3.16745033     8.02769424     1.99174668     0.47676549    -0.97391547
Ti      1.95703030     0.49494381     1.18901683     1.18032294    -1.29485534    -0.72214730
Ti      4.24634488     4.85007333     8.02765728    -1.18032294     1.29485534     0.72214730
Ti      0.80480938     0.49494174     5.79731675     1.99174668     0.47676549     0.97391547
Ti      5.39856581     4.85007540     3.41935726    -1.99174668    -0.47676549    -0.97391547
O       2.00186085     1.88207132     4.70319815     0.00478020     0.45959360    -0.61040866
O       4.20151432     3.46294566     4.51347586    -0.00478020    -0.45959360     0.61040866
O       1.32039887     1.88209285     0.09489083     0.47340557    -0.60729094     0.30605703
O       4.88297636     3.46292419     9.12178292    -0.47340557     0.60729094    -0.30605703
O       3.66159983     0.79043728     0.09486091    -0.00478020    -0.45959360    -0.61040866
O       2.54177534     4.55457971     9.12181284     0.00478020     0.45959360     0.61040866
O       4.34306187     0.79041580     4.70322807    -0.47340557     0.60729094     0.30605703
O       1.86031326     4.55460125     4.51344594     0.47340557    -0.60729094    -0.30605703
O       0.84296356     3.25114218     2.48965358    -0.25797533    -0.12239613    -0.38638038
O       5.36041161     2.09387480     6.72702043     0.25797533     0.12239613     0.38638038
O       3.17093924     2.09382488     2.11871275     0.82673544    -0.43343493    -0.74601743
O       3.03243593     3.25119211     7.09796111    -0.82673544     0.43343493     0.74601743
O       0.30304907     0.57863380     2.11868330    -0.25797533    -0.12239613     0.38638038
O       5.90032610     4.76638324     7.09799056     0.25797533     0.12239613    -0.38638038
O       2.49252144     0.57868367     6.72704983    -0.82673544     0.43343493    -0.74601743
O       3.71085373     4.76633332     2.48962413     0.82673544    -0.43343493     0.74601743
