# total energy = -39037.54894385 eV

CRYSTAL
PRIMVEC
        7.60600008     0.00000000     0.00000000
        0.00000000     7.60600008     0.00000000
       -3.79573973    -3.79573973     9.71340985
PRIMCOORD
46 1
Ti      1.92588747     4.62969043     6.13505460     0.46123474     1.84125765     0.42818191
Ti      3.68161101     6.78040002     1.30424401     1.73651369     0.90283575    -0.69197719
Ti      2.03215346     0.90725746     6.08228764     0.03613970    -1.62823241    -1.62020234
Ti      3.82678301     2.90082400     1.21361003    -0.17156952    -1.17263585     0.52306594
Ti     -1.85651054     4.71791147     6.02858763    -0.70585113    -0.58123562     0.57751086
Ti      0.00885202     6.72049001     1.12090198    -0.82184520    -0.77099108     1.62378877
Ti     -1.79506253     0.94913147     6.02477962    -0.10040419     0.32700845    -1.08217644
Ti     -0.01798001     2.92212402     1.18663098    -0.35340700     0.31228373     0.12048965
Ti      3.84012447     1.02368043     8.46148861    -0.05655272    -0.93858361    -0.48324622
Ti      5.65923398     2.68289701     3.59818802    -0.18956725     0.41972683     0.71540792
Ti      3.83527546    -2.79128453     8.54317061     0.23716404     0.37373647    -1.14054333
Ti      5.58299202    -1.08281101     3.66752400     0.60245572     0.45746704    -1.13954111
Ti      0.04942346     1.03156845     8.32066163     0.39184604     0.73436698     0.74479873
Ti      1.88610800     2.85461799     3.41811202    -0.02901980    -1.56756747     2.20757725
Ti      0.01142346    -2.77356857     8.56492763    -0.29818611    -0.74805220     0.62782686
Ti      1.79747198    -1.03044802     3.78495901    -0.59307427     0.44341801     1.52758269
O       1.95887045    -1.04509655     5.94765960    -0.27986777     0.31814842    -2.35317347
O       3.81700398     1.01620802     0.97126701    -0.33650328     0.72299448    -1.24412848
O      -1.88630454     2.77507847     5.60740863     0.33084685     1.13133672    -0.59828821
O      -0.12483699     4.75598800     0.71149702     0.24627346     0.72098413    -0.16330059
O      -1.94948058    -0.98702257     5.69647165     0.56902905    -0.19513009    -0.43482384
O      -0.04018101     1.01972303     0.85730498     0.00899552    -0.73406025    -0.40250635
O       3.84769843     2.90800647     8.90936164    -0.14539799    -0.78552142     0.21416680
O       5.44722599     4.70454398     4.04377802     0.68284489    -0.12405937     0.59744721
O       3.96028745    -0.94360352     8.88137065    -0.17506751     0.63326346    -0.11648670
O       5.68246899     0.89484101     3.96317797    -0.01916167    -0.65817077     0.25328152
O       0.06950643     2.88163244     9.08434061     0.02477542    -1.33330157    -0.90179497
O       1.76464103     4.55533203     4.14830899     0.13640916     0.50717214     0.15367541
O      -0.00225853    -0.79807057     9.00593564     0.05528799     0.05888703    -0.76647133
O       1.79229599     1.01105600     4.13668498     0.19120376    -0.30339337    -0.11011062
O       1.93077945     0.77797745     7.95450765     1.10763165     0.77286181     1.95625002
O       3.77471398     2.62864798     3.19544201    -0.28644208     0.46459774     0.53210619
O       1.93589247    -2.86411657     8.12853362     0.00394382    -0.11035205     0.30489438
O       3.57348200    -0.94021600     3.31362100     1.64510606    -0.28859024     0.11967024
O      -1.80568957     0.96950347     7.85586160    -0.55917786    -0.09003132     2.06922536
O       0.00481398     2.61849498     3.06261101    -0.95786792     0.58246538     0.47366114
O      -1.86481253    -2.97095555     8.15893660     0.35386414     0.64789818    -0.31146278
O      -0.08516399    -1.05738499     3.27892200     0.25686847     0.03428079    -0.58773846
O       3.85963746     4.66030645     6.47760262    -0.37169887    -0.40212840     0.42684211
O       5.57572399     6.63985901     1.60393799     0.91995828    -0.52832307     0.98785831
O       3.87827143     1.12209745     6.39439860    -0.43232113     0.04937214     0.47543752
O       5.57382302     3.15656399     1.74688898     1.44160728     0.21101000    -1.60131810
O       0.03708347     4.61513445     6.58567263    -0.34431712    -0.02488263    -0.45625914
O       1.93272598     6.46559702     1.52229499    -2.96215080    -0.09727387     0.43062497
O       0.17050043     1.28010543     6.39366363    -1.11566224    -0.19186787    -0.02588793
O       1.91259401     3.06530399     1.61238599    -0.13488552     0.60701171    -1.85993337
