# total energy = -4989.37732245 eV

CRYSTAL
PRIMVEC
        3.69859802     0.00000000     0.00000000
        0.91041590     3.58479709     0.00000000
       -2.30454064    -1.79242474     4.75813065
PRIMCOORD
6 1
Ti      0.68269182     2.68873510     1.18953259     0.00076953    -0.00076953     0.00000000
Ti      1.62178163    -0.89636261     3.56859776    -0.00076953     0.00076953     0.00000000
O       0.22764276     0.89619417     0.77506055    -0.00005374     0.00034736    -0.23579699
O       2.07683053     0.89617823     3.98306980     0.00005374    -0.00034736     0.23579699
O      -0.22761633    -0.89617361     3.15412572     0.00034736    -0.00005374    -0.23579699
O       2.53208961     2.68854596     1.60400463    -0.00034736     0.00005374     0.23579699
