# total energy = -19069.86511496 eV

CRYSTAL
PRIMVEC
        5.17600016     0.00000000     0.00000000
        0.00000000     5.50899976     0.00000000
        0.00000000     0.00000000     9.26300011
PRIMCOORD
22 1
Ti      1.77572999     3.48194699     3.23217099     1.71445156    -1.65859664    -3.83175323
Ti      3.60286499     2.57897401     5.96589299    -0.44122821     2.01383658     0.02920414
Ti      4.40459298     2.32228902     1.51300100     0.29326913    -1.93017877     0.77134615
Ti      1.12087700     2.15895899     7.84085599    -4.04460105     2.96630390     3.67991436
Ti      1.80920500     0.45312998     1.17878302     0.48101450     1.71829433     0.42819322
Ti      3.07881002     0.33575900     7.70739198     2.64463281    -3.88595108     3.40358212
Ti      0.73673200     4.90317002     6.34712101     0.66675980     1.02140145     0.92566227
Ti      4.40334200     5.20038602     3.88735301    -0.07697320    -1.95582373    -2.01063273
O       3.51829501     3.35666702     4.08632599     0.00384689     1.71672210     2.55886823
O       1.07996102     2.16115100     0.42262302    -1.35641631     1.39363253    -0.63773358
O       5.07364998     3.73974098     7.35830798    -2.07692711    -0.56616227    -0.30976997
O       3.65033701     0.83521098     0.24207399    -1.15082877     0.14686815    -0.08616824
O       1.41256501     0.05280797     8.71529498    -0.65488156    -0.88544326    -1.44876035
O       4.11364598     1.24261402     4.76556600     0.45117272    -1.94896145     0.41263727
O       1.07119599     4.34949102     4.56634902    -1.98721588     2.03034821     2.90698107
O       0.07482402     3.85915702     2.24074402     0.47037578    -0.74131822    -0.31397269
O       4.43839301     1.48609101     7.28130100     2.61363223    -0.60757041    -0.37532104
O       2.63570297     1.92995901     2.23304502     0.38487037     0.45404027     0.39395151
O       2.24979200     3.54086299     7.15728799     1.71164417     1.83755551    -1.09336794
O       0.02072703     0.91373703     2.36446598     0.85787331     0.16833713     0.59305807
O       2.03493900     1.29081000     6.62138903    -0.25278813    -2.31371731    -5.74278164
O       2.72082902     4.74366399     2.34062400    -0.25168307     1.02638271    -0.25313703
