# total energy = -19073.06953251 eV

CRYSTAL
PRIMVEC
        5.17600016     0.00000000     0.00000000
        0.00000000     5.50899976     0.00000000
        0.00000000     0.00000000     9.26300011
PRIMCOORD
22 1
Ti      2.05823899     3.41767899     3.22316799     0.27526961     2.04829426     1.06470527
Ti      3.52304199     2.13403998     5.82048100     0.67611451     0.08817036    -1.30701383
Ti      4.52903800     2.38029198     1.29743900     0.65462805    -1.25325488    -1.12543012
Ti      0.53669702     2.98896001     8.06467198    -1.87530755    -1.47043810     1.38132903
Ti      1.94055500     0.63456999     1.44797199    -1.31189842    -2.57779464    -2.41566185
Ti      2.99358698     5.07219500     8.01617902    -0.27234960     1.39705930     3.34312980
Ti      0.70764402     0.10349802     5.96039902    -0.12122576     1.09131440     0.20099478
Ti      4.61147302     4.88283199     3.45391102    -0.50167743     0.79284958    -0.72396378
O       3.69494999     3.43330703     4.37320398    -0.28291864    -0.53843085     1.24805996
O       0.90819802     1.92253101     0.28738098    -0.25595804     0.77757028    -1.11879590
O       4.16897400     3.52897899     8.95140303    -0.69170491     0.63256206     0.07820527
O       3.37474901     0.85055898     0.03465502     1.04138536     0.18167936    -0.15603928
O       1.58603698     4.87586702     0.12890398     0.01228679    -1.15318030    -1.64869660
O       4.20558301     0.76398500     4.69869397     0.01120436    -0.25311877     1.03794136
O       1.19778001     5.08890002     4.18641298     0.67448983    -1.27091219     1.78003631
O       0.48505498     3.55404802     2.24801698    -1.82024607    -0.31705570     0.62464152
O       4.92198301     1.58917903     6.96519400     0.57627056    -0.16139001     0.03580237
O       2.73264301     2.19986698     2.06867701     1.44612471    -0.19705816     0.53404198
O       1.53431901     4.01713299     7.07395501     2.21928117     2.21209493    -3.00453725
O       0.11034600     0.67687898     2.16768602    -0.14016914     1.26622301    -0.12281162
O       2.25208699     1.20132602     6.78951398    -0.51720305    -1.77885798     0.01202583
O       3.01752600     4.77150300     2.32059401     0.20360291     0.48367431     0.28203727
