# total energy = -4983.52841612 eV

CRYSTAL
PRIMVEC
        2.73575947     0.00000000     0.00000000
        1.05514475     4.15463183     0.00000000
       -0.00000679    -0.00005617     4.32093838
PRIMCOORD
6 1
Ti      1.89544861     2.07728775     2.16046924     0.00000000     0.00000000     0.00000000
Ti      0.00000000     0.00000000     0.00000000     0.00000000     0.00000000     0.00000000
O       1.57351051     0.80966555     0.84208727    -5.47212434     2.54112838     2.96008569
O       2.21738667     3.34490994     3.47885121     5.47212434    -2.54112838    -2.96008569
O       0.32193522     1.26759946     3.00255738     5.47296432    -2.54338041     2.96240662
O       0.73320263     2.88697612     1.31838110    -5.47296432     2.54338041    -2.96240662
