# total energy = -19887.50778800 eV

CRYSTAL
PRIMVEC
        7.76362876     0.00000000     0.00000000
        0.00002414     2.75428292     0.00000000
        0.00000000     0.00000000    12.35127854
PRIMCOORD
24 1
Ti      2.81395614     1.63218541     4.58223635    -0.43924280     0.49766831     0.87464334
Ti      4.94969644     1.12209724     7.76904256     0.43924280    -0.49766831    -0.87464334
Ti      6.69563809     1.12209813     1.59335376    -0.43799941    -0.49798456    -0.87382881
Ti      1.06801454     1.63218463    10.75792526     0.43799941     0.49798456     0.87382881
Ti      2.81394439     0.25504401     1.59340329    -0.43924280     0.49766831    -0.87464334
Ti      4.94970824     2.49923875    10.75787572     0.43924280    -0.49766831     0.87464334
Ti      1.06800274     0.25504307     7.76899303     0.43799941     0.49798456    -0.87382881
Ti      6.69564989     2.49923969     4.58228588    -0.43799941    -0.49798456     0.87382881
O       2.45724590     0.96982975     6.30276304     6.19101276    -0.42283041     1.36316469
O       5.30640673     1.78445295     6.04851586    -6.19101276     0.42283041    -1.36316469
O       1.42463063     0.96984093     0.12716336    -6.19224021    -0.42308315     1.36291761
O       6.33902205     1.78444177    12.22411518     6.19224021     0.42308315    -1.36291761
O       5.30639493     0.40731144     0.12712325    -6.19101276     0.42283041     1.36316469
O       2.45725770     2.34697121    12.22415529     6.19101276    -0.42283041    -1.36316469
O       6.33901025     0.40730031     6.30280310     6.19224021     0.42308315     1.36291761
O       1.42464228     2.34698239     6.04847581    -6.19224021    -0.42308315    -1.36291761
O       0.28208508     1.67531100     3.33638853     0.45119766    -0.03513311     4.07314391
O       7.48156755     1.07897165     9.01489033    -0.45119766     0.03513311    -4.07314391
O       4.16390973     1.07894612     2.83929016     0.45006560     0.03526784    -4.07272945
O       3.59974290     1.67533658     9.51198853    -0.45006560    -0.03526784     4.07272945
O       0.28207328     0.29816954     2.83925074     0.45119766    -0.03513311    -4.07314391
O       7.48157935     2.45611317     9.51202796    -0.45119766     0.03513311     4.07314391
O       3.59973115     0.29819507     9.01492970    -0.45006560    -0.03526784    -4.07272945
O       4.16392148     2.45608758     3.33634911     0.45006560     0.03526784     4.07272945
